# File generated by Flopy version 3.3.4 on 08/27/2022 at 17:07:11.
BEGIN options
  NOCHECK
END options

BEGIN timing
  TDIS6  test.tdis
END timing

BEGIN models
  gwf6  test.nam  test
END models

BEGIN exchanges
END exchanges

BEGIN solutiongroup  1
  ims6  test.ims  test
END solutiongroup  1

