# File generated by Flopy version 3.3.5 on 04/15/2022 at 22:07:35.
BEGIN options
  SAVE_FLOWS
END options

BEGIN packages
  DISV6  ./model.disv  disv
  NPF6  ./model.npf  npf
  STO6  ./model.sto  sto
  IC6  ./model.ic  ic
  CHD6  ./model.chd  chd_0
  DRN6  ./model.drn  drn_0
  WEL6  ./model.wel  wel_0
  RCH6  ./model.rcha  rcha_0
  OC6  ./model.oc  oc
END packages

