# File generated by Flopy version 3.3.5 on 04/15/2022 at 22:07:36.
BEGIN options
  SAVE_FLOWS
  VARIABLECV  DEWATERED
  PERCHED
  SAVE_SPECIFIC_DISCHARGE
  SAVE_SATURATION
END options

BEGIN griddata
  icelltype
    CONSTANT  1
  k  LAYERED
    INTERNAL  FACTOR  1.0
          10.00000000      10.00000000      10.00000000      10.00000000      10.00000000      10.00000000      10.00000000      10.00000000      10.00000000      10.00000000      10.00000000      10.00000000      10.00000000      10.00000000      10.00000000      10.00000000      10.00000000      10.00000000      10.00000000      10.00000000
          10.00000000      10.00000000      10.00000000      10.00000000      10.00000000      10.00000000      10.00000000      10.00000000      10.00000000      10.00000000      10.00000000      10.00000000      10.00000000      10.00000000      10.00000000      10.00000000      10.00000000      10.00000000      10.00000000      10.00000000
          10.00000000      10.00000000      10.00000000      10.00000000      10.00000000      10.00000000      10.00000000      10.00000000      10.00000000      10.00000000      10.00000000      10.00000000      10.00000000      10.00000000      10.00000000      10.00000000      10.00000000      10.00000000      10.00000000      10.00000000
          10.00000000      10.00000000      10.00000000      10.00000000      10.00000000      10.00000000      10.00000000      10.00000000      10.00000000      10.00000000      10.00000000      10.00000000      10.00000000      10.00000000      10.00000000      10.00000000      10.00000000      10.00000000      10.00000000      10.00000000
          10.00000000      10.00000000      10.00000000      10.00000000      10.00000000      10.00000000      10.00000000      10.00000000      10.00000000      10.00000000      10.00000000      10.00000000      10.00000000      10.00000000      10.00000000      10.00000000      10.00000000      10.00000000      10.00000000      10.00000000
          10.00000000      10.00000000      10.00000000      10.00000000      10.00000000      10.00000000      10.00000000      10.00000000      10.00000000      10.00000000      10.00000000      10.00000000      10.00000000      10.00000000      10.00000000      10.00000000      10.00000000      10.00000000      10.00000000      10.00000000
          10.00000000      10.00000000      10.00000000      10.00000000      10.00000000      10.00000000      10.00000000      10.00000000      10.00000000      10.00000000      10.00000000      10.00000000      10.00000000      10.00000000      10.00000000      10.00000000      10.00000000      10.00000000      10.00000000      10.00000000
          10.00000000      10.00000000      10.00000000      10.00000000      10.00000000      10.00000000      10.00000000      10.00000000      10.00000000      10.00000000      10.00000000      10.00000000      10.00000000      10.00000000      10.00000000      10.00000000      10.00000000      10.00000000      10.00000000      10.00000000
          10.00000000      10.00000000      10.00000000      10.00000000      10.00000000      10.00000000      10.00000000      10.00000000      10.00000000      10.00000000      10.00000000      10.00000000      10.00000000      10.00000000      10.00000000      10.00000000      10.00000000      10.00000000      10.00000000      10.00000000
          10.00000000      10.00000000      10.00000000      10.00000000      10.00000000      10.00000000      10.00000000      10.00000000      10.00000000      10.00000000      10.00000000      10.00000000      10.00000000      10.00000000      10.00000000      10.00000000      10.00000000      10.00000000      10.00000000      10.00000000
          10.00000000      10.00000000      10.00000000      10.00000000      10.00000000      10.00000000      10.00000000      10.00000000      10.00000000      10.00000000      10.00000000      10.00000000      10.00000000      10.00000000      10.00000000      10.00000000      10.00000000      10.00000000      10.00000000      10.00000000
          10.00000000      10.00000000      10.00000000      10.00000000      10.00000000      10.00000000      10.00000000      10.00000000      10.00000000      10.00000000      10.00000000      10.00000000      10.00000000      10.00000000      10.00000000      10.00000000      10.00000000      10.00000000      10.00000000      10.00000000
          10.00000000      10.00000000      10.00000000      10.00000000      10.00000000      10.00000000      10.00000000      10.00000000      10.00000000      10.00000000      10.00000000      10.00000000      10.00000000      10.00000000      10.00000000      10.00000000      10.00000000      10.00000000      10.00000000      10.00000000
          10.00000000      10.00000000      10.00000000      10.00000000      10.00000000      10.00000000      10.00000000      10.00000000      10.00000000      10.00000000      10.00000000      10.00000000      10.00000000      10.00000000      10.00000000      10.00000000      10.00000000      10.00000000      10.00000000      10.00000000
          10.00000000      10.00000000      10.00000000      10.00000000      10.00000000      10.00000000      10.00000000      10.00000000      10.00000000      10.00000000      10.00000000      10.00000000      10.00000000      10.00000000      10.00000000      10.00000000      10.00000000      10.00000000      10.00000000      10.00000000
          10.00000000      10.00000000      10.00000000      10.00000000      10.00000000      10.00000000      10.00000000      10.00000000      10.00000000      10.00000000      10.00000000      10.00000000      10.00000000      10.00000000      10.00000000      10.00000000      10.00000000      10.00000000      10.00000000      10.00000000
          10.00000000      10.00000000      10.00000000      10.00000000      10.00000000      10.00000000      10.00000000      10.00000000      10.00000000      10.00000000      10.00000000      10.00000000      10.00000000      10.00000000      10.00000000      10.00000000      10.00000000      10.00000000      10.00000000      10.00000000
          10.00000000      10.00000000      10.00000000      10.00000000      10.00000000      10.00000000      10.00000000      10.00000000      10.00000000      10.00000000      10.00000000      10.00000000      10.00000000      10.00000000      10.00000000      10.00000000      10.00000000      10.00000000      10.00000000      10.00000000
          10.00000000      10.00000000      10.00000000      10.00000000      10.00000000      10.00000000      10.00000000      10.00000000      10.00000000      10.00000000      10.00000000      10.00000000      10.00000000      10.00000000      10.00000000      10.00000000      10.00000000      10.00000000      10.00000000      10.00000000
          10.00000000      10.00000000      10.00000000      10.00000000      10.00000000      10.00000000      10.00000000      10.00000000      10.00000000      10.00000000      10.00000000      10.00000000      10.00000000      10.00000000      10.00000000      10.00000000      10.00000000      10.00000000      10.00000000      10.00000000
          10.00000000      10.00000000      10.00000000      10.00000000      10.00000000      10.00000000      10.00000000      10.00000000      10.00000000      10.00000000      10.00000000      10.00000000      10.00000000      10.00000000      10.00000000      10.00000000      10.00000000      10.00000000      10.00000000      10.00000000
          10.00000000      10.00000000      10.00000000      10.00000000      10.00000000      10.00000000      10.00000000      10.00000000      10.00000000      10.00000000      10.00000000      10.00000000      10.00000000      10.00000000      10.00000000      10.00000000      10.00000000      10.00000000      10.00000000      10.00000000
          10.00000000      10.00000000      10.00000000      10.00000000      10.00000000      10.00000000      10.00000000      10.00000000      10.00000000      10.00000000      10.00000000      10.00000000      10.00000000      10.00000000      10.00000000      10.00000000      10.00000000      10.00000000      10.00000000      10.00000000
          10.00000000      10.00000000      10.00000000      10.00000000      10.00000000      10.00000000      10.00000000      10.00000000      10.00000000      10.00000000      10.00000000      10.00000000      10.00000000      10.00000000      10.00000000      10.00000000      10.00000000      10.00000000      10.00000000      10.00000000
          10.00000000      10.00000000      10.00000000      10.00000000      10.00000000      10.00000000      10.00000000      10.00000000      10.00000000      10.00000000      10.00000000      10.00000000      10.00000000      10.00000000      10.00000000      10.00000000      10.00000000      10.00000000      10.00000000      10.00000000
          10.00000000      10.00000000      10.00000000      10.00000000      10.00000000      10.00000000      10.00000000      10.00000000      10.00000000      10.00000000      10.00000000      10.00000000      10.00000000      10.00000000      10.00000000      10.00000000      10.00000000      10.00000000      10.00000000      10.00000000
          10.00000000      10.00000000      10.00000000      10.00000000      10.00000000      10.00000000      10.00000000      10.00000000      10.00000000      10.00000000      10.00000000      10.00000000      10.00000000      10.00000000      10.00000000      10.00000000      10.00000000      10.00000000      10.00000000      10.00000000
          10.00000000      10.00000000      10.00000000      10.00000000      10.00000000      10.00000000      10.00000000      10.00000000      10.00000000      10.00000000      10.00000000      10.00000000      10.00000000      10.00000000      10.00000000      10.00000000      10.00000000      10.00000000      10.00000000      10.00000000
          10.00000000      10.00000000      10.00000000      10.00000000      10.00000000      10.00000000      10.00000000      10.00000000      10.00000000      10.00000000      10.00000000      10.00000000      10.00000000      10.00000000      10.00000000      10.00000000      10.00000000      10.00000000      10.00000000      10.00000000
          10.00000000      10.00000000      10.00000000      10.00000000      10.00000000      10.00000000      10.00000000      10.00000000      10.00000000      10.00000000      10.00000000      10.00000000      10.00000000      10.00000000      10.00000000      10.00000000      10.00000000      10.00000000      10.00000000      10.00000000
          10.00000000      10.00000000      10.00000000      10.00000000      10.00000000      10.00000000      10.00000000      10.00000000      10.00000000      10.00000000      10.00000000      10.00000000      10.00000000      10.00000000      10.00000000      10.00000000      10.00000000      10.00000000      10.00000000      10.00000000
          10.00000000      10.00000000      10.00000000      10.00000000      10.00000000      10.00000000      10.00000000      10.00000000      10.00000000      10.00000000      10.00000000      10.00000000      10.00000000      10.00000000      10.00000000      10.00000000      10.00000000      10.00000000      10.00000000      10.00000000
          10.00000000      10.00000000      10.00000000      10.00000000      10.00000000      10.00000000      10.00000000      10.00000000      10.00000000      10.00000000      10.00000000      10.00000000      10.00000000      10.00000000      10.00000000      10.00000000      10.00000000      10.00000000      10.00000000      10.00000000
          10.00000000      10.00000000      10.00000000      10.00000000      10.00000000      10.00000000      10.00000000      10.00000000      10.00000000      10.00000000      10.00000000      10.00000000      10.00000000      10.00000000      10.00000000      10.00000000      10.00000000      10.00000000      10.00000000      10.00000000
          10.00000000      10.00000000      10.00000000      10.00000000      10.00000000      10.00000000      10.00000000      10.00000000      10.00000000      10.00000000      10.00000000      10.00000000      10.00000000      10.00000000      10.00000000      10.00000000      10.00000000      10.00000000      10.00000000      10.00000000
          10.00000000      10.00000000      10.00000000      10.00000000      10.00000000      10.00000000      10.00000000      10.00000000      10.00000000      10.00000000      10.00000000      10.00000000      10.00000000      10.00000000      10.00000000      10.00000000      10.00000000      10.00000000      10.00000000      10.00000000
          10.00000000      10.00000000      10.00000000      10.00000000      10.00000000      10.00000000      10.00000000      10.00000000      10.00000000      10.00000000      10.00000000      10.00000000      10.00000000      10.00000000      10.00000000      10.00000000      10.00000000      10.00000000      10.00000000      10.00000000
          10.00000000      10.00000000      10.00000000      10.00000000      10.00000000      10.00000000      10.00000000      10.00000000      10.00000000      10.00000000      10.00000000      10.00000000      10.00000000      10.00000000      10.00000000      10.00000000      10.00000000      10.00000000      10.00000000      10.00000000
          10.00000000      10.00000000      10.00000000      10.00000000      10.00000000      10.00000000      10.00000000      10.00000000      10.00000000      10.00000000      10.00000000      10.00000000      10.00000000      10.00000000      10.00000000      10.00000000      10.00000000      10.00000000      10.00000000      10.00000000
          10.00000000      10.00000000      10.00000000      10.00000000      10.00000000      10.00000000      10.00000000      10.00000000      10.00000000      10.00000000      10.00000000      10.00000000      10.00000000      10.00000000      10.00000000      10.00000000      10.00000000      10.00000000      10.00000000      10.00000000
          10.00000000      10.00000000      10.00000000      10.00000000      10.00000000      10.00000000      10.00000000      10.00000000      10.00000000      10.00000000      10.00000000      10.00000000      10.00000000      10.00000000      10.00000000      10.00000000      10.00000000      10.00000000      10.00000000      10.00000000
          10.00000000      10.00000000      10.00000000      10.00000000      10.00000000      10.00000000      10.00000000      10.00000000      10.00000000      10.00000000      10.00000000      10.00000000      10.00000000      10.00000000      10.00000000      10.00000000      10.00000000      10.00000000      10.00000000      10.00000000
          10.00000000      10.00000000      10.00000000      10.00000000      10.00000000      10.00000000      10.00000000      10.00000000      10.00000000      10.00000000      10.00000000      10.00000000      10.00000000      10.00000000      10.00000000      10.00000000      10.00000000      10.00000000      10.00000000      10.00000000
          10.00000000      10.00000000      10.00000000      10.00000000      10.00000000      10.00000000      10.00000000      10.00000000      10.00000000      10.00000000      10.00000000      10.00000000      10.00000000      10.00000000      10.00000000      10.00000000      10.00000000      10.00000000      10.00000000      10.00000000
          10.00000000      10.00000000      10.00000000      10.00000000      10.00000000      10.00000000      10.00000000      10.00000000      10.00000000      10.00000000      10.00000000      10.00000000      10.00000000      10.00000000      10.00000000      10.00000000      10.00000000      10.00000000      10.00000000      10.00000000
          10.00000000      10.00000000      10.00000000      10.00000000      10.00000000      10.00000000      10.00000000      10.00000000      10.00000000      10.00000000      10.00000000      10.00000000      10.00000000      10.00000000      10.00000000      10.00000000      10.00000000      10.00000000      10.00000000      10.00000000
          10.00000000      10.00000000      10.00000000      10.00000000      10.00000000      10.00000000      10.00000000      10.00000000      10.00000000      10.00000000      10.00000000      10.00000000      10.00000000      10.00000000      10.00000000      10.00000000      10.00000000      10.00000000      10.00000000      10.00000000
          10.00000000      10.00000000      10.00000000      10.00000000      10.00000000      10.00000000      10.00000000      10.00000000      10.00000000      10.00000000      10.00000000      10.00000000      10.00000000      10.00000000      10.00000000      10.00000000      10.00000000      10.00000000      10.00000000      10.00000000
          10.00000000      10.00000000      10.00000000      10.00000000      10.00000000      10.00000000      10.00000000      10.00000000      10.00000000      10.00000000      10.00000000      10.00000000      10.00000000      10.00000000      10.00000000      10.00000000      10.00000000      10.00000000      10.00000000      10.00000000
          10.00000000      10.00000000      10.00000000      10.00000000      10.00000000      10.00000000      10.00000000      10.00000000      10.00000000      10.00000000      10.00000000      10.00000000      10.00000000      10.00000000      10.00000000      10.00000000      10.00000000      10.00000000      10.00000000      10.00000000
          10.00000000      10.00000000      10.00000000      10.00000000      10.00000000      10.00000000      10.00000000      10.00000000      10.00000000      10.00000000      10.00000000      10.00000000      10.00000000      10.00000000      10.00000000      10.00000000      10.00000000      10.00000000      10.00000000      10.00000000
          10.00000000      10.00000000      10.00000000      10.00000000      10.00000000      10.00000000      10.00000000      10.00000000      10.00000000      10.00000000      10.00000000      10.00000000      10.00000000      10.00000000      10.00000000      10.00000000      10.00000000      10.00000000      10.00000000      10.00000000
          10.00000000      10.00000000      10.00000000      10.00000000      10.00000000      10.00000000      10.00000000      10.00000000      10.00000000      10.00000000      10.00000000      10.00000000      10.00000000      10.00000000      10.00000000      10.00000000      10.00000000      10.00000000      10.00000000      10.00000000
          10.00000000      10.00000000      10.00000000      10.00000000      10.00000000      10.00000000      10.00000000      10.00000000      10.00000000      10.00000000      10.00000000      10.00000000      10.00000000      10.00000000      10.00000000      10.00000000      10.00000000      10.00000000      10.00000000      10.00000000
          10.00000000      10.00000000      10.00000000      10.00000000      10.00000000      10.00000000      10.00000000      10.00000000      10.00000000      10.00000000      10.00000000      10.00000000      10.00000000      10.00000000      10.00000000      10.00000000      10.00000000      10.00000000      10.00000000      10.00000000
          10.00000000      10.00000000      10.00000000      10.00000000      10.00000000      10.00000000      10.00000000      10.00000000      10.00000000      10.00000000      10.00000000      10.00000000      10.00000000      10.00000000      10.00000000      10.00000000      10.00000000      10.00000000      10.00000000      10.00000000
          10.00000000      10.00000000      10.00000000      10.00000000      10.00000000      10.00000000      10.00000000      10.00000000      10.00000000      10.00000000      10.00000000      10.00000000      10.00000000      10.00000000      10.00000000      10.00000000      10.00000000      10.00000000      10.00000000      10.00000000
          10.00000000      10.00000000      10.00000000      10.00000000      10.00000000      10.00000000      10.00000000      10.00000000      10.00000000      10.00000000      10.00000000      10.00000000      10.00000000      10.00000000      10.00000000      10.00000000      10.00000000      10.00000000      10.00000000      10.00000000
          10.00000000      10.00000000      10.00000000      10.00000000      10.00000000      10.00000000      10.00000000      10.00000000      10.00000000      10.00000000      10.00000000      10.00000000      10.00000000      10.00000000      10.00000000      10.00000000      10.00000000      10.00000000      10.00000000      10.00000000
          10.00000000      10.00000000      10.00000000      10.00000000      10.00000000      10.00000000      10.00000000      10.00000000      10.00000000      10.00000000      10.00000000      10.00000000      10.00000000      10.00000000      10.00000000      10.00000000      10.00000000      10.00000000      10.00000000      10.00000000
          10.00000000      10.00000000      10.00000000      10.00000000      10.00000000      10.00000000      10.00000000      10.00000000      10.00000000      10.00000000      10.00000000      10.00000000      10.00000000      10.00000000      10.00000000      10.00000000      10.00000000      10.00000000      10.00000000      10.00000000
          10.00000000      10.00000000      10.00000000      10.00000000      10.00000000      10.00000000      10.00000000      10.00000000      10.00000000      10.00000000      10.00000000      10.00000000      10.00000000      10.00000000      10.00000000      10.00000000      10.00000000      10.00000000      10.00000000      10.00000000
          10.00000000      10.00000000      10.00000000      10.00000000      10.00000000      10.00000000      10.00000000      10.00000000      10.00000000      10.00000000      10.00000000      10.00000000      10.00000000      10.00000000      10.00000000      10.00000000      10.00000000      10.00000000      10.00000000      10.00000000
          10.00000000      10.00000000      10.00000000      10.00000000      10.00000000      10.00000000      10.00000000      10.00000000      10.00000000      10.00000000      10.00000000      10.00000000      10.00000000      10.00000000      10.00000000      10.00000000      10.00000000      10.00000000      10.00000000      10.00000000
          10.00000000      10.00000000      10.00000000      10.00000000      10.00000000      10.00000000      10.00000000      10.00000000      10.00000000      10.00000000      10.00000000      10.00000000      10.00000000      10.00000000      10.00000000      10.00000000      10.00000000      10.00000000      10.00000000      10.00000000
          10.00000000      10.00000000      10.00000000      10.00000000      10.00000000      10.00000000      10.00000000      10.00000000      10.00000000      10.00000000      10.00000000      10.00000000      10.00000000      10.00000000      10.00000000      10.00000000      10.00000000      10.00000000      10.00000000      10.00000000
          10.00000000      10.00000000      10.00000000      10.00000000      10.00000000      10.00000000      10.00000000      10.00000000      10.00000000      10.00000000      10.00000000      10.00000000      10.00000000      10.00000000      10.00000000      10.00000000      10.00000000      10.00000000      10.00000000      10.00000000
          10.00000000      10.00000000      10.00000000      10.00000000      10.00000000      10.00000000      10.00000000      10.00000000      10.00000000      10.00000000      10.00000000      10.00000000      10.00000000      10.00000000      10.00000000      10.00000000      10.00000000      10.00000000      10.00000000      10.00000000
          10.00000000      10.00000000      10.00000000      10.00000000      10.00000000      10.00000000      10.00000000      10.00000000      10.00000000      10.00000000      10.00000000      10.00000000      10.00000000      10.00000000      10.00000000      10.00000000      10.00000000      10.00000000      10.00000000      10.00000000
          10.00000000      10.00000000      10.00000000      10.00000000      10.00000000      10.00000000      10.00000000      10.00000000      10.00000000      10.00000000      10.00000000      10.00000000      10.00000000      10.00000000      10.00000000      10.00000000      10.00000000      10.00000000      10.00000000      10.00000000
          10.00000000      10.00000000      10.00000000      10.00000000      10.00000000      10.00000000      10.00000000      10.00000000      10.00000000      10.00000000      10.00000000      10.00000000      10.00000000      10.00000000      10.00000000      10.00000000      10.00000000      10.00000000      10.00000000      10.00000000
          10.00000000      10.00000000      10.00000000      10.00000000      10.00000000      10.00000000      10.00000000      10.00000000      10.00000000      10.00000000      10.00000000      10.00000000      10.00000000      10.00000000      10.00000000      10.00000000      10.00000000      10.00000000      10.00000000      10.00000000
          10.00000000      10.00000000      10.00000000      10.00000000      10.00000000      10.00000000      10.00000000      10.00000000      10.00000000      10.00000000      10.00000000      10.00000000      10.00000000      10.00000000      10.00000000      10.00000000      10.00000000      10.00000000      10.00000000      10.00000000
          10.00000000      10.00000000      10.00000000      10.00000000      10.00000000      10.00000000      10.00000000      10.00000000      10.00000000      10.00000000      10.00000000      10.00000000      10.00000000      10.00000000      10.00000000      10.00000000      10.00000000      10.00000000      10.00000000      10.00000000
          10.00000000      10.00000000      10.00000000      10.00000000      10.00000000      10.00000000      10.00000000      10.00000000      10.00000000      10.00000000      10.00000000      10.00000000      10.00000000      10.00000000      10.00000000      10.00000000      10.00000000      10.00000000      10.00000000      10.00000000
          10.00000000      10.00000000      10.00000000      10.00000000      10.00000000      10.00000000      10.00000000      10.00000000      10.00000000      10.00000000      10.00000000      10.00000000      10.00000000      10.00000000      10.00000000      10.00000000      10.00000000      10.00000000      10.00000000      10.00000000
          10.00000000      10.00000000      10.00000000      10.00000000      10.00000000      10.00000000      10.00000000      10.00000000      10.00000000      10.00000000      10.00000000      10.00000000      10.00000000      10.00000000      10.00000000      10.00000000      10.00000000      10.00000000      10.00000000      10.00000000
          10.00000000      10.00000000      10.00000000      10.00000000      10.00000000      10.00000000      10.00000000      10.00000000      10.00000000      10.00000000      10.00000000      10.00000000      10.00000000      10.00000000      10.00000000      10.00000000      10.00000000      10.00000000      10.00000000      10.00000000
          10.00000000      10.00000000      10.00000000      10.00000000      10.00000000      10.00000000      10.00000000      10.00000000      10.00000000      10.00000000      10.00000000      10.00000000      10.00000000      10.00000000      10.00000000      10.00000000      10.00000000      10.00000000      10.00000000      10.00000000
          10.00000000      10.00000000      10.00000000      10.00000000      10.00000000      10.00000000      10.00000000      10.00000000      10.00000000      10.00000000      10.00000000      10.00000000      10.00000000      10.00000000      10.00000000      10.00000000      10.00000000      10.00000000      10.00000000      10.00000000
          10.00000000      10.00000000      10.00000000      10.00000000      10.00000000      10.00000000      10.00000000      10.00000000      10.00000000      10.00000000      10.00000000      10.00000000      10.00000000      10.00000000      10.00000000      10.00000000      10.00000000      10.00000000      10.00000000      10.00000000
          10.00000000      10.00000000      10.00000000      10.00000000      10.00000000      10.00000000      10.00000000      10.00000000      10.00000000      10.00000000      10.00000000      10.00000000      10.00000000      10.00000000      10.00000000      10.00000000      10.00000000      10.00000000      10.00000000      10.00000000
          10.00000000      10.00000000      10.00000000      10.00000000      10.00000000      10.00000000      10.00000000      10.00000000      10.00000000      10.00000000      10.00000000      10.00000000      10.00000000      10.00000000      10.00000000      10.00000000      10.00000000      10.00000000      10.00000000      10.00000000
          10.00000000      10.00000000      10.00000000      10.00000000      10.00000000      10.00000000      10.00000000      10.00000000      10.00000000      10.00000000      10.00000000      10.00000000      10.00000000      10.00000000      10.00000000      10.00000000      10.00000000      10.00000000      10.00000000      10.00000000
          10.00000000      10.00000000      10.00000000      10.00000000      10.00000000      10.00000000      10.00000000      10.00000000      10.00000000      10.00000000      10.00000000      10.00000000      10.00000000      10.00000000      10.00000000      10.00000000      10.00000000      10.00000000      10.00000000      10.00000000
          10.00000000      10.00000000      10.00000000      10.00000000      10.00000000      10.00000000      10.00000000      10.00000000      10.00000000      10.00000000      10.00000000      10.00000000      10.00000000      10.00000000      10.00000000      10.00000000      10.00000000      10.00000000      10.00000000      10.00000000