# File generated by Flopy version 3.3.5 on 04/15/2022 at 22:07:36.
BEGIN options
  SAVE_FLOWS
END options

BEGIN dimensions
  MAXBOUND  8
END dimensions

BEGIN period  1
  3 766     -25.00000000
  3 781     -25.00000000
  3 1516     -25.00000000
  3 1531     -25.00000000
  5 511     -25.00000000
  5 536     -25.00000000
  5 1761     -25.00000000
  5 1786     -25.00000000
END period  1

