# File generated by Flopy version 3.3.5 on 04/15/2022 at 22:07:36.
BEGIN options
  SAVE_FLOWS
END options

BEGIN dimensions
  MAXBOUND  96
END dimensions

BEGIN period  1
  1 2     100.00000000      -1.00000000
  1 3     100.00000000      -1.00000000
  1 4     100.00000000      -1.00000000
  1 5     100.00000000      -1.00000000
  1 6     100.00000000      -1.00000000
  1 7     100.00000000      -1.00000000
  1 8     100.00000000      -1.00000000
  1 9     100.00000000      -1.00000000
  1 10     100.00000000      -1.00000000
  1 11     100.00000000      -1.00000000
  1 12     100.00000000      -1.00000000
  1 13     100.00000000      -1.00000000
  1 14     100.00000000      -1.00000000
  1 15     100.00000000      -1.00000000
  1 16     100.00000000      -1.00000000
  1 17     100.00000000      -1.00000000
  1 18     100.00000000      -1.00000000
  1 19     100.00000000      -1.00000000
  1 20     100.00000000      -1.00000000
  1 21     100.00000000      -1.00000000
  1 22     100.00000000      -1.00000000
  1 23     100.00000000      -1.00000000
  1 24     100.00000000      -1.00000000
  1 25     100.00000000      -1.00000000
  1 26     100.00000000      -1.00000000
  1 27     100.00000000      -1.00000000
  1 28     100.00000000      -1.00000000
  1 29     100.00000000      -1.00000000
  1 30     100.00000000      -1.00000000
  1 31     100.00000000      -1.00000000
  1 32     100.00000000      -1.00000000
  1 33     100.00000000      -1.00000000
  1 34     100.00000000      -1.00000000
  1 35     100.00000000      -1.00000000
  1 36     100.00000000      -1.00000000
  1 37     100.00000000      -1.00000000
  1 38     100.00000000      -1.00000000
  1 39     100.00000000      -1.00000000
  1 40     100.00000000      -1.00000000
  1 41     100.00000000      -1.00000000
  1 42     100.00000000      -1.00000000
  1 43     100.00000000      -1.00000000
  1 44     100.00000000      -1.00000000
  1 45     100.00000000      -1.00000000
  1 46     100.00000000      -1.00000000
  1 47     100.00000000      -1.00000000
  1 48     100.00000000      -1.00000000
  1 49     100.00000000      -1.00000000
  1 2452     100.00000000      -1.00000000
  1 2453     100.00000000      -1.00000000
  1 2454     100.00000000      -1.00000000
  1 2455     100.00000000      -1.00000000
  1 2456     100.00000000      -1.00000000
  1 2457     100.00000000      -1.00000000
  1 2458     100.00000000      -1.00000000
  1 2459     100.00000000      -1.00000000
  1 2460     100.00000000      -1.00000000
  1 2461     100.00000000      -1.00000000
  1 2462     100.00000000      -1.00000000
  1 2463     100.00000000      -1.00000000
  1 2464     100.00000000      -1.00000000
  1 2465     100.00000000      -1.00000000
  1 2466     100.00000000      -1.00000000
  1 2467     100.00000000      -1.00000000
  1 2468     100.00000000      -1.00000000
  1 2469     100.00000000      -1.00000000
  1 2470     100.00000000      -1.00000000
  1 2471     100.00000000      -1.00000000
  1 2472     100.00000000      -1.00000000
  1 2473     100.00000000      -1.00000000
  1 2474     100.00000000      -1.00000000
  1 2475     100.00000000      -1.00000000
  1 2476     100.00000000      -1.00000000
  1 2477     100.00000000      -1.00000000
  1 2478     100.00000000      -1.00000000
  1 2479     100.00000000      -1.00000000
  1 2480     100.00000000      -1.00000000
  1 2481     100.00000000      -1.00000000
  1 2482     100.00000000      -1.00000000
  1 2483     100.00000000      -1.00000000
  1 2484     100.00000000      -1.00000000
  1 2485     100.00000000      -1.00000000
  1 2486     100.00000000      -1.00000000
  1 2487     100.00000000      -1.00000000
  1 2488     100.00000000      -1.00000000
  1 2489     100.00000000      -1.00000000
  1 2490     100.00000000      -1.00000000
  1 2491     100.00000000      -1.00000000
  1 2492     100.00000000      -1.00000000
  1 2493     100.00000000      -1.00000000
  1 2494     100.00000000      -1.00000000
  1 2495     100.00000000      -1.00000000
  1 2496     100.00000000      -1.00000000
  1 2497     100.00000000      -1.00000000
  1 2498     100.00000000      -1.00000000
  1 2499     100.00000000      -1.00000000
END period  1

