# File generated by Flopy version 3.3.5 on 04/15/2022 at 22:07:36.
BEGIN options
  SAVE_FLOWS
END options

BEGIN dimensions
  MAXBOUND  100
END dimensions

BEGIN period  1
  1 1       0.00000000
  1 51       0.00000000
  1 101       0.00000000
  1 151       0.00000000
  1 201       0.00000000
  1 251       0.00000000
  1 301       0.00000000
  1 351       0.00000000
  1 401       0.00000000
  1 451       0.00000000
  1 501       0.00000000
  1 551       0.00000000
  1 601       0.00000000
  1 651       0.00000000
  1 701       0.00000000
  1 751       0.00000000
  1 801       0.00000000
  1 851       0.00000000
  1 901       0.00000000
  1 951       0.00000000
  1 1001       0.00000000
  1 1051       0.00000000
  1 1101       0.00000000
  1 1151       0.00000000
  1 1201       0.00000000
  1 1251       0.00000000
  1 1301       0.00000000
  1 1351       0.00000000
  1 1401       0.00000000
  1 1451       0.00000000
  1 1501       0.00000000
  1 1551       0.00000000
  1 1601       0.00000000
  1 1651       0.00000000
  1 1701       0.00000000
  1 1751       0.00000000
  1 1801       0.00000000
  1 1851       0.00000000
  1 1901       0.00000000
  1 1951       0.00000000
  1 2001       0.00000000
  1 2051       0.00000000
  1 2101       0.00000000
  1 2151       0.00000000
  1 2201       0.00000000
  1 2251       0.00000000
  1 2301       0.00000000
  1 2351       0.00000000
  1 2401       0.00000000
  1 2451       0.00000000
  1 50       0.00000000
  1 100       0.00000000
  1 150       0.00000000
  1 200       0.00000000
  1 250       0.00000000
  1 300       0.00000000
  1 350       0.00000000
  1 400       0.00000000
  1 450       0.00000000
  1 500       0.00000000
  1 550       0.00000000
  1 600       0.00000000
  1 650       0.00000000
  1 700       0.00000000
  1 750       0.00000000
  1 800       0.00000000
  1 850       0.00000000
  1 900       0.00000000
  1 950       0.00000000
  1 1000       0.00000000
  1 1050       0.00000000
  1 1100       0.00000000
  1 1150       0.00000000
  1 1200       0.00000000
  1 1250       0.00000000
  1 1300       0.00000000
  1 1350       0.00000000
  1 1400       0.00000000
  1 1450       0.00000000
  1 1500       0.00000000
  1 1550       0.00000000
  1 1600       0.00000000
  1 1650       0.00000000
  1 1700       0.00000000
  1 1750       0.00000000
  1 1800       0.00000000
  1 1850       0.00000000
  1 1900       0.00000000
  1 1950       0.00000000
  1 2000       0.00000000
  1 2050       0.00000000
  1 2100       0.00000000
  1 2150       0.00000000
  1 2200       0.00000000
  1 2250       0.00000000
  1 2300       0.00000000
  1 2350       0.00000000
  1 2400       0.00000000
  1 2450       0.00000000
  1 2500       0.00000000
END period  1

