# File generated by Flopy version 3.3.5 on 04/15/2022 at 22:07:36.
BEGIN options
  READASARRAYS
END options

BEGIN period  1
  recharge
    CONSTANT       0.00100000
END period  1

