# File generated by Flopy version 3.3.5 on 04/15/2022 at 22:07:36.
BEGIN griddata
  strt
    CONSTANT       0.00000000
END griddata

