# File generated by Flopy version 3.3.4 on 08/27/2022 at 17:07:14.
BEGIN options
  SAVE_FLOWS
END options

BEGIN dimensions
  MAXBOUND  2484
END dimensions

BEGIN period  1
  1 1588  2.50000000E+06      25.00000000
  1 1589  2.50000000E+06     -50.00000000
  1 1634  2.50000000E+06     200.00000000
  1 1635  2.50000000E+06      50.00000000
  1 1636  2.50000000E+06     -50.00000000
  1 1679  2.50000000E+06     400.00000000
  1 1680  2.50000000E+06     300.00000000
  1 1681  2.50000000E+06     200.00000000
  1 1682  2.50000000E+06     150.00000000
  1 1683  2.50000000E+06     100.00000000
  1 1684  2.50000000E+06      30.00000000
  1 1726  2.50000000E+06     275.00000000
  1 1727  2.50000000E+06     225.00000000
  1 1728  2.50000000E+06     275.00000000
  1 1729  2.50000000E+06     200.00000000
  1 1730  2.50000000E+06     100.00000000
  1 1731  2.50000000E+06     100.00000000
  1 1773  2.50000000E+06     150.00000000
  1 1774  2.50000000E+06     150.00000000
  1 1775  2.50000000E+06     150.00000000
  1 1776  2.50000000E+06     125.00000000
  1 1777  2.50000000E+06     100.00000000
  1 1778  2.50000000E+06      30.00000000
  1 1815  2.50000000E+06     575.00000000
  1 1816  2.50000000E+06     600.00000000
  1 1817  2.50000000E+06     575.00000000
  1 1818  2.50000000E+06     475.00000000
  1 1819  2.50000000E+06     375.00000000
  1 1820  2.50000000E+06     325.00000000
  1 1821  2.50000000E+06     200.00000000
  1 1822  2.50000000E+06     100.00000000
  1 1823  2.50000000E+06     150.00000000
  1 1824  2.50000000E+06      80.00000000
  1 1825  2.50000000E+06     100.00000000
  1 1826  2.50000000E+06     100.00000000
  1 1861  2.50000000E+06     575.00000000
  1 1862  2.50000000E+06     575.00000000
  1 1863  2.50000000E+06     575.00000000
  1 1864  2.50000000E+06     550.00000000
  1 1865  2.50000000E+06     400.00000000
  1 1866  2.50000000E+06     350.00000000
  1 1867  2.50000000E+06     300.00000000
  1 1868  2.50000000E+06     250.00000000
  1 1869  2.50000000E+06     200.00000000
  1 1870  2.50000000E+06     200.00000000
  1 1871  2.50000000E+06     200.00000000
  1 1872  2.50000000E+06     190.00000000
  1 1873  2.50000000E+06     125.00000000
  1 1874  2.50000000E+06      50.00000000
  1 1908  2.50000000E+06     604.17541504
  1 1909  2.50000000E+06     558.64141846
  1 1910  2.50000000E+06     575.00000000
  1 1911  2.50000000E+06     550.00000000
  1 1912  2.50000000E+06     425.00000000
  1 1913  2.50000000E+06     350.00000000
  1 1914  2.50000000E+06     375.00000000
  1 1915  2.50000000E+06     250.00000000
  1 1916  2.50000000E+06     250.00000000
  1 1917  2.50000000E+06     250.00000000
  1 1918  2.50000000E+06     175.00000000
  1 1919  2.50000000E+06     150.00000000
  1 1920  2.50000000E+06      75.00000000
  1 1921  2.50000000E+06     -50.00000000
  1 1958  2.50000000E+06     450.00000000
  1 1959  2.50000000E+06     400.00000000
  1 1960  2.50000000E+06     350.00000000
  1 1961  2.50000000E+06     250.00000000
  1 1962  2.50000000E+06     275.00000000
  1 1963  2.50000000E+06     275.00000000
  1 1964  2.50000000E+06     250.00000000
  1 1965  2.50000000E+06     150.00000000
  1 1966  2.50000000E+06     100.00000000
  1 1967  2.50000000E+06       0.00000000
  1 1968  2.50000000E+06     -75.00000000
  1 1969  2.50000000E+06    -200.00000000
  1 2003  2.50000000E+06     500.00000000
  1 2004  2.50000000E+06     400.00000000
  1 2005  2.50000000E+06     350.00000000
  1 2006  2.50000000E+06     300.00000000
  1 2007  2.50000000E+06     300.00000000
  1 2008  2.50000000E+06     200.00000000
  1 2009  2.50000000E+06     150.00000000
  1 2010  2.50000000E+06     175.00000000
  1 2011  2.50000000E+06     150.00000000
  1 2012  2.50000000E+06     125.00000000
  1 2013  2.50000000E+06      25.00000000
  1 2014  2.50000000E+06     -25.00000000
  1 2015  2.50000000E+06     -50.00000000
  1 2016  2.50000000E+06     -50.00000000
  1 2050  2.50000000E+06     450.00000000
  1 2051  2.50000000E+06     400.00000000
  1 2052  2.50000000E+06     250.00000000
  1 2053  2.50000000E+06     200.00000000
  1 2054  2.50000000E+06     200.00000000
  1 2055  2.50000000E+06     150.00000000
  1 2056  2.50000000E+06     100.00000000
  1 2057  2.50000000E+06      50.00000000
  1 2058  2.50000000E+06      25.00000000
  1 2059  2.50000000E+06     -25.00000000
  1 2060  2.50000000E+06     -50.00000000
  1 2061  2.50000000E+06     -25.00000000
  1 2062  2.50000000E+06     -50.00000000
  1 2063  2.50000000E+06    -225.00000000
  1 2098  2.50000000E+06     300.00000000
  1 2099  2.50000000E+06     275.00000000
  1 2100  2.50000000E+06     200.00000000
  1 2101  2.50000000E+06     200.00000000
  1 2102  2.50000000E+06     250.00000000
  1 2103  2.50000000E+06     150.00000000
  1 2104  2.50000000E+06     100.00000000
  1 2105  2.50000000E+06     100.00000000
  1 2106  2.50000000E+06      75.00000000
  1 2107  2.50000000E+06       0.00000000
  1 2108  2.50000000E+06       0.00000000
  1 2109  2.50000000E+06    -100.00000000
  1 2110  2.50000000E+06    -200.00000000
  1 2144  2.50000000E+06     475.00000000
  1 2145  2.50000000E+06     375.00000000
  1 2146  2.50000000E+06     400.00000000
  1 2147  2.50000000E+06     310.00000000
  1 2148  2.50000000E+06     300.00000000
  1 2149  2.50000000E+06     225.00000000
  1 2150  2.50000000E+06     250.00000000
  1 2151  2.50000000E+06     225.00000000
  1 2152  2.50000000E+06     150.00000000
  1 2153  2.50000000E+06     125.00000000
  1 2154  2.50000000E+06     100.00000000
  1 2155  2.50000000E+06     -50.00000000
  1 2156  2.50000000E+06    -125.00000000
  1 2157  2.50000000E+06      40.00000000
  1 2191  2.50000000E+06     400.00000000
  1 2192  2.50000000E+06     400.00000000
  1 2193  2.50000000E+06     400.00000000
  1 2194  2.50000000E+06     300.00000000
  1 2195  2.50000000E+06     300.00000000
  1 2196  2.50000000E+06     250.00000000
  1 2197  2.50000000E+06     150.00000000
  1 2198  2.50000000E+06     200.00000000
  1 2199  2.50000000E+06     150.00000000
  1 2200  2.50000000E+06     100.00000000
  1 2201  2.50000000E+06     100.00000000
  1 2202  2.50000000E+06      30.00000000
  1 2203  2.50000000E+06      30.00000000
  1 2204  2.50000000E+06      30.00000000
  1 2236  2.50000000E+06     550.00000000
  1 2237  2.50000000E+06     500.00000000
  1 2238  2.50000000E+06     360.00000000
  1 2239  2.50000000E+06     325.00000000
  1 2240  2.50000000E+06     275.00000000
  1 2241  2.50000000E+06     275.00000000
  1 2242  2.50000000E+06     275.00000000
  1 2243  2.50000000E+06     200.00000000
  1 2244  2.50000000E+06     220.00000000
  1 2245  2.50000000E+06     225.00000000
  1 2246  2.50000000E+06     200.00000000
  1 2247  2.50000000E+06     100.00000000
  1 2248  2.50000000E+06      25.00000000
  1 2249  2.50000000E+06      25.00000000
  1 2250  2.50000000E+06      25.00000000
  1 2251  2.50000000E+06     190.00000000
  1 2280  2.50000000E+06     700.00000000
  1 2281  2.50000000E+06     600.00000000
  1 2283  2.50000000E+06     550.00000000
  1 2284  2.50000000E+06     450.00000000
  1 2285  2.50000000E+06     375.00000000
  1 2286  2.50000000E+06     350.00000000
  1 2287  2.50000000E+06     300.00000000
  1 2288  2.50000000E+06     275.00000000
  1 2289  2.50000000E+06     275.00000000
  1 2290  2.50000000E+06     225.00000000
  1 2291  2.50000000E+06     200.00000000
  1 2292  2.50000000E+06     200.00000000
  1 2293  2.50000000E+06     250.00000000
  1 2294  2.50000000E+06     100.00000000
  1 2295  2.50000000E+06      75.00000000
  1 2296  2.50000000E+06      50.00000000
  1 2297  2.50000000E+06      45.00000000
  1 2298  2.50000000E+06      39.00000000
  1 2299  2.50000000E+06      20.00000000
  1 2327  2.50000000E+06     700.00000000
  1 2328  2.50000000E+06     600.00000000
  1 2329  2.50000000E+06     550.00000000
  1 2330  2.50000000E+06     450.00000000
  1 2331  2.50000000E+06     400.00000000
  1 2332  2.50000000E+06     400.00000000
  1 2333  2.50000000E+06     400.00000000
  1 2334  2.50000000E+06     350.00000000
  1 2335  2.50000000E+06     250.00000000
  1 2336  2.50000000E+06     200.00000000
  1 2337  2.50000000E+06     200.00000000
  1 2338  2.50000000E+06     200.00000000
  1 2339  2.50000000E+06     150.00000000
  1 2340  2.50000000E+06     150.00000000
  1 2341  2.50000000E+06      75.00000000
  1 2342  2.50000000E+06      50.00000000
  1 2343  2.50000000E+06      52.00000000
  1 2344  2.50000000E+06      52.00000000
  1 2345  2.50000000E+06      45.00000000
  1 2346  2.50000000E+06      45.00000000
  1 2374  2.50000000E+06     700.00000000
  1 2375  2.50000000E+06     700.00000000
  1 2376  2.50000000E+06     600.00000000
  1 2377  2.50000000E+06     500.00000000
  1 2378  2.50000000E+06     450.00000000
  1 2379  2.50000000E+06     400.00000000
  1 2380  2.50000000E+06     400.00000000
  1 2381  2.50000000E+06     375.00000000
  1 2382  2.50000000E+06     300.00000000
  1 2383  2.50000000E+06     250.00000000
  1 2384  2.50000000E+06     275.00000000
  1 2385  2.50000000E+06     150.00000000
  1 2386  2.50000000E+06     150.00000000
  1 2387  2.50000000E+06     150.00000000
  1 2388  2.50000000E+06      25.00000000
  1 2389  2.50000000E+06      60.00000000
  1 2390  2.50000000E+06      65.00000000
  1 2391  2.50000000E+06      80.00000000
  1 2392  2.50000000E+06      25.00000000
  1 2393  2.50000000E+06      50.00000000
  1 2419  2.50000000E+06     700.00000000
  1 2420  2.50000000E+06     700.00000000
  1 2421  2.50000000E+06     700.00000000
  1 2422  2.50000000E+06     700.00000000
  1 2423  2.50000000E+06     600.00000000
  1 2424  2.50000000E+06     600.00000000
  1 2425  2.50000000E+06     500.00000000
  1 2426  2.50000000E+06     500.00000000
  1 2427  2.50000000E+06     400.00000000
  1 2428  2.50000000E+06     400.00000000
  1 2429  2.50000000E+06     300.00000000
  1 2430  2.50000000E+06     275.00000000
  1 2431  2.50000000E+06     290.00000000
  1 2432  2.50000000E+06     254.12840271
  1 2433  2.50000000E+06     200.00000000
  1 2434  2.50000000E+06     200.00000000
  1 2435  2.50000000E+06      60.00000000
  1 2436  2.50000000E+06      25.00000000
  1 2437  2.50000000E+06      50.00000000
  1 2438  2.50000000E+06      20.00000000
  1 2439  2.50000000E+06      25.00000191
  1 2440  2.50000000E+06      20.00000000
  1 2466  2.50000000E+06     748.00708008
  1 2467  2.50000000E+06     750.00000000
  1 2468  2.50000000E+06     700.00000000
  1 2469  2.50000000E+06     711.50262451
  1 2470  2.50000000E+06     670.95532227
  1 2471  2.50000000E+06     600.00000000
  1 2472  2.50000000E+06     500.00000000
  1 2473  2.50000000E+06     475.00000000
  1 2474  2.50000000E+06     400.00000000
  1 2475  2.50000000E+06     350.00000000
  1 2476  2.50000000E+06     325.00000000
  1 2477  2.50000000E+06     300.00000000
  1 2478  2.50000000E+06     275.00000000
  1 2479  2.50000000E+06     325.00000000
  1 2480  2.50000000E+06     250.00000000
  1 2481  2.50000000E+06     150.00000000
  1 2482  2.50000000E+06      50.00000000
  1 2483  2.50000000E+06      40.00000000
  1 2484  2.50000000E+06      40.00000000
  1 2485  2.50000000E+06      50.00000000
  1 2486  2.50000000E+06      50.00000381
  1 2487  2.50000000E+06      20.00000000
  1 2513  2.50000000E+06     700.00000000
  1 2514  2.50000000E+06     700.00000000
  1 2515  2.50000000E+06     650.00000000
  1 2516  2.50000000E+06     650.00000000
  1 2517  2.50000000E+06     550.00000000
  1 2518  2.50000000E+06     500.00000000
  1 2519  2.50000000E+06     375.00000000
  1 2520  2.50000000E+06     300.00000000
  1 2521  2.50000000E+06     400.00000000
  1 2522  2.50000000E+06     375.00000000
  1 2523  2.50000000E+06     325.00000000
  1 2524  2.50000000E+06     275.00000000
  1 2525  2.50000000E+06     300.00000000
  1 2526  2.50000000E+06     200.00000000
  1 2527  2.50000000E+06     200.00000000
  1 2528  2.50000000E+06      75.00000000
  1 2529  2.50000000E+06      25.00000000
  1 2530  2.50000000E+06      50.00000000
  1 2531  2.50000000E+06      60.00000000
  1 2532  2.50000000E+06      50.00000000
  1 2533  2.50000000E+06      39.99999237
  1 2534  2.50000000E+06      35.00000763
  1 2560  2.50000000E+06     750.00000000
  1 2561  2.50000000E+06     700.00000000
  1 2562  2.50000000E+06     675.00000000
  1 2563  2.50000000E+06     650.00000000
  1 2564  2.50000000E+06     600.00000000
  1 2565  2.50000000E+06     525.00000000
  1 2566  2.50000000E+06     475.00000000
  1 2567  2.50000000E+06     500.00000000
  1 2568  2.50000000E+06     477.55499268
  1 2569  2.50000000E+06     421.63299561
  1 2570  2.50000000E+06     400.00000000
  1 2571  2.50000000E+06     375.00000000
  1 2572  2.50000000E+06     350.00000000
  1 2573  2.50000000E+06     257.66821289
  1 2574  2.50000000E+06     166.47259521
  1 2575  2.50000000E+06      75.00000000
  1 2576  2.50000000E+06      60.00000000
  1 2577  2.50000000E+06      50.00000000
  1 2578  2.50000000E+06      40.00000000
  1 2579  2.50000000E+06      30.00000000
  1 2580  2.50000000E+06      20.00000000
  1 2607  2.50000000E+06     700.00000000
  1 2608  2.50000000E+06     650.00000000
  1 2609  2.50000000E+06     500.00000000
  1 2610  2.50000000E+06     475.00000000
  1 2611  2.50000000E+06     400.00000000
  1 2612  2.50000000E+06     400.00000000
  1 2613  2.50000000E+06     400.00000000
  1 2614  2.50000000E+06     400.00000000
  1 2615  2.50000000E+06     429.22198486
  1 2616  2.50000000E+06     350.00000000
  1 2617  2.50000000E+06     390.49429321
  1 2618  2.50000000E+06     400.00000000
  1 2619  2.50000000E+06     350.00000000
  1 2620  2.50000000E+06     250.00000000
  1 2621  2.50000000E+06     125.00000000
  1 2622  2.50000000E+06      49.99999619
  1 2623  2.50000000E+06      10.00000000
  1 2624  2.50000000E+06      59.99999237
  1 2625  2.50000000E+06      50.00000000
  1 2626  2.50000000E+06      80.00000000
  1 2627  2.50000000E+06      30.00000000
  1 2653  2.50000000E+06     700.00000000
  1 2654  2.50000000E+06     650.00000000
  1 2655  2.50000000E+06     650.00000000
  1 2656  2.50000000E+06     650.00000000
  1 2657  2.50000000E+06     550.00000000
  1 2658  2.50000000E+06     450.00000000
  1 2659  2.50000000E+06     500.00000000
  1 2660  2.50000000E+06     525.00000000
  1 2661  2.50000000E+06     462.64718628
  1 2662  2.50000000E+06     400.00000000
  1 2663  2.50000000E+06     350.00000000
  1 2664  2.50000000E+06     300.00000000
  1 2665  2.50000000E+06     298.90219116
  1 2666  2.50000000E+06     350.00000000
  1 2667  2.50000000E+06     325.00000000
  1 2668  2.50000000E+06     175.00000000
  1 2669  2.50000000E+06      60.00000000
  1 2670  2.50000000E+06      40.00000000
  1 2671  2.50000000E+06      50.00000000
  1 2672  2.50000000E+06      40.00000000
  1 2673  2.50000000E+06      30.00000000
  1 2674  2.50000000E+06      50.00000000
  1 2700  2.50000000E+06     650.00000000
  1 2701  2.50000000E+06     600.00000000
  1 2702  2.50000000E+06     600.00000000
  1 2703  2.50000000E+06     550.00000000
  1 2704  2.50000000E+06     550.00000000
  1 2705  2.50000000E+06     600.00000000
  1 2706  2.50000000E+06     547.40802002
  1 2707  2.50000000E+06     525.00000000
  1 2708  2.50000000E+06     500.00000000
  1 2709  2.50000000E+06     425.00000000
  1 2710  2.50000000E+06     400.00000000
  1 2711  2.50000000E+06     350.00000000
  1 2712  2.50000000E+06     300.00000000
  1 2713  2.50000000E+06     200.00000000
  1 2714  2.50000000E+06     200.00000000
  1 2715  2.50000000E+06      75.00000000
  1 2716  2.50000000E+06      40.00000000
  1 2717  2.50000000E+06      25.00000000
  1 2718  2.50000000E+06      25.00000000
  1 2719  2.50000000E+06      75.00000000
  1 2720  2.50000000E+06      40.00000763
  1 2721  2.50000000E+06      60.00000000
  1 2746  2.50000000E+06     750.00000000
  1 2747  2.50000000E+06     675.00000000
  1 2748  2.50000000E+06     600.00000000
  1 2749  2.50000000E+06     600.00000000
  1 2750  2.50000000E+06     550.00000000
  1 2751  2.50000000E+06     575.34350586
  1 2752  2.50000000E+06     625.00000000
  1 2753  2.50000000E+06     600.00000000
  1 2754  2.50000000E+06     500.00000000
  1 2755  2.50000000E+06     450.00000000
  1 2756  2.50000000E+06     450.00000000
  1 2757  2.50000000E+06     350.00000000
  1 2758  2.50000000E+06     250.00000000
  1 2759  2.50000000E+06     200.00000000
  1 2760  2.50000000E+06     150.00000000
  1 2761  2.50000000E+06      75.00000000
  1 2762  2.50000000E+06      75.00000000
  1 2763  2.50000000E+06      75.00000000
  1 2764  2.50000000E+06      75.00000000
  1 2765  2.50000000E+06      50.00000000
  1 2766  2.50000000E+06     100.00000763
  1 2767  2.50000000E+06      50.00000763
  1 2768  2.50000000E+06      30.00000763
  1 2793  2.50000000E+06     709.20721436
  1 2794  2.50000000E+06     650.00000000
  1 2795  2.50000000E+06     600.00000000
  1 2796  2.50000000E+06     650.00000000
  1 2797  2.50000000E+06     587.45690918
  1 2798  2.50000000E+06     525.00000000
  1 2799  2.50000000E+06     545.00720215
  1 2800  2.50000000E+06     540.58319092
  1 2801  2.50000000E+06     450.00000000
  1 2802  2.50000000E+06     435.09271240
  1 2803  2.50000000E+06     396.51470947
  1 2804  2.50000000E+06     400.00000000
  1 2805  2.50000000E+06     333.54748535
  1 2806  2.50000000E+06     100.00000000
  1 2807  2.50000000E+06     100.00000000
  1 2808  2.50000000E+06      75.00000000
  1 2809  2.50000000E+06      25.00000000
  1 2810  2.50000000E+06      24.99999809
  1 2811  2.50000000E+06      40.00000000
  1 2812  2.50000000E+06      50.00000000
  1 2813  2.50000000E+06      50.00000000
  1 2814  2.50000000E+06      30.00000000
  1 2815  2.50000000E+06      27.10189819
  1 2840  2.50000000E+06     625.00000000
  1 2841  2.50000000E+06     675.00000000
  1 2842  2.50000000E+06     675.00000000
  1 2843  2.50000000E+06     625.00000000
  1 2844  2.50000000E+06     675.00000000
  1 2845  2.50000000E+06     500.00000000
  1 2846  2.50000000E+06     535.41619873
  1 2847  2.50000000E+06     475.00000000
  1 2848  2.50000000E+06     475.00000000
  1 2849  2.50000000E+06     406.03030396
  1 2850  2.50000000E+06     325.00000000
  1 2851  2.50000000E+06     361.23220825
  1 2852  2.50000000E+06     300.00000000
  1 2853  2.50000000E+06     150.00000000
  1 2854  2.50000000E+06     200.00000000
  1 2855  2.50000000E+06      75.00000000
  1 2856  2.50000000E+06      50.00000000
  1 2857  2.50000000E+06      50.00000000
  1 2858  2.50000000E+06      49.99999619
  1 2859  2.50000000E+06      50.00000381
  1 2860  2.50000000E+06      39.99999619
  1 2861  2.50000000E+06      20.00000000
  1 2888  2.50000000E+06     625.00000000
  1 2889  2.50000000E+06     650.00000000
  1 2890  2.50000000E+06     650.00000000
  1 2891  2.50000000E+06     630.00000000
  1 2892  2.50000000E+06     533.74353027
  1 2893  2.50000000E+06     492.64270020
  1 2894  2.50000000E+06     500.00000000
  1 2895  2.50000000E+06     450.00000000
  1 2896  2.50000000E+06     425.00000000
  1 2897  2.50000000E+06     388.50061035
  1 2898  2.50000000E+06     300.00000000
  1 2899  2.50000000E+06     225.00000000
  1 2900  2.50000000E+06     250.00000000
  1 2901  2.50000000E+06     200.00000000
  1 2902  2.50000000E+06      75.00000000
  1 2903  2.50000000E+06      50.00000000
  1 2904  2.50000000E+06     107.03089905
  1 2905  2.50000000E+06     100.00000000
  1 2906  2.50000000E+06      50.00000000
  1 2907  2.50000000E+06      10.00000000
  1 2937  2.50000000E+06     625.00000000
  1 2938  2.50000000E+06     600.00000000
  1 2939  2.50000000E+06     550.00000000
  1 2940  2.50000000E+06     525.00000000
  1 2941  2.50000000E+06     525.00000000
  1 2942  2.50000000E+06     450.00000000
  1 2943  2.50000000E+06     450.00000000
  1 2944  2.50000000E+06     425.00000000
  1 2945  2.50000000E+06     350.00000000
  1 2946  2.50000000E+06     308.29901123
  1 2947  2.50000000E+06     300.00000000
  1 2948  2.50000000E+06     200.00000000
  1 2949  2.50000000E+06     120.00000000
  1 2950  2.50000000E+06     159.78880310
  1 2951  2.50000000E+06     180.00000000
  1 2952  2.50000000E+06     130.00000000
  1 2953  2.50000000E+06      25.00000000
  1 2954  2.50000000E+06      19.99999619
  1 2985  2.50000000E+06     625.00000000
  1 2986  2.50000000E+06     550.00000000
  1 2987  2.50000000E+06     500.00000000
  1 2988  2.50000000E+06     500.00000000
  1 2989  2.50000000E+06     400.00000000
  1 2990  2.50000000E+06     400.00000000
  1 2991  2.50000000E+06     400.00000000
  1 2992  2.50000000E+06     350.00000000
  1 2993  2.50000000E+06     350.00000000
  1 2994  2.50000000E+06     350.00000000
  1 2995  2.50000000E+06     250.00000000
  1 2996  2.50000000E+06     180.00000000
  1 2997  2.50000000E+06     180.00000000
  1 2998  2.50000000E+06     150.00000000
  1 2999  2.50000000E+06      50.00000000
  1 3000  2.50000000E+06      30.00000000
  1 3032  2.50000000E+06     600.00000000
  1 3033  2.50000000E+06     525.00000000
  1 3034  2.50000000E+06     500.00000000
  1 3035  2.50000000E+06     500.00000000
  1 3036  2.50000000E+06     450.00000000
  1 3037  2.50000000E+06     450.00000000
  1 3038  2.50000000E+06     375.00000000
  1 3039  2.50000000E+06     350.00000000
  1 3040  2.50000000E+06     350.00000000
  1 3041  2.50000000E+06     350.00000000
  1 3042  2.50000000E+06     273.03750610
  1 3043  2.50000000E+06     125.00000000
  1 3044  2.50000000E+06     118.07589722
  1 3045  2.50000000E+06     149.09979248
  1 3046  2.50000000E+06     123.27380371
  1 3047  2.50000000E+06      30.00000000
  1 3079  2.50000000E+06     575.00000000
  1 3080  2.50000000E+06     521.07379150
  1 3081  2.50000000E+06     450.00000000
  1 3082  2.50000000E+06     400.00000000
  1 3083  2.50000000E+06     400.00000000
  1 3084  2.50000000E+06     450.00000000
  1 3085  2.50000000E+06     400.00000000
  1 3086  2.50000000E+06     350.00000000
  1 3087  2.50000000E+06     281.46530151
  1 3088  2.50000000E+06     251.78799438
  1 3089  2.50000000E+06     250.00000000
  1 3090  2.50000000E+06     200.00000000
  1 3091  2.50000000E+06     150.00000000
  1 3092  2.50000000E+06      49.99999619
  1 3093  2.50000000E+06      24.99999809
  1 3094  2.50000000E+06      30.00000000
  1 3126  2.50000000E+06     560.18121338
  1 3127  2.50000000E+06     433.62411499
  1 3128  2.50000000E+06     400.00000000
  1 3129  2.50000000E+06     336.48541260
  1 3130  2.50000000E+06     400.00000000
  1 3131  2.50000000E+06     400.00000000
  1 3132  2.50000000E+06     375.00000000
  1 3133  2.50000000E+06     324.64840698
  1 3134  2.50000000E+06     264.61059570
  1 3135  2.50000000E+06     259.92068481
  1 3136  2.50000000E+06     250.00000000
  1 3137  2.50000000E+06     148.37739563
  1 3138  2.50000000E+06     159.46569824
  1 3139  2.50000000E+06     150.00000000
  1 3140  2.50000000E+06     100.00000000
  1 3141  2.50000000E+06      30.00000381
  1 3173  2.50000000E+06     550.00000000
  1 3174  2.50000000E+06     500.00000000
  1 3175  2.50000000E+06     400.00000000
  1 3176  2.50000000E+06     350.00000000
  1 3177  2.50000000E+06     350.00000000
  1 3178  2.50000000E+06     325.00000000
  1 3179  2.50000000E+06     400.00000000
  1 3180  2.50000000E+06     225.00000000
  1 3181  2.50000000E+06     200.00000000
  1 3182  2.50000000E+06     200.00000000
  1 3183  2.50000000E+06     175.00000000
  1 3184  2.50000000E+06     175.00000000
  1 3185  2.50000000E+06     225.00000000
  1 3186  2.50000000E+06     143.67430115
  1 3187  2.50000000E+06     125.00000000
  1 3188  2.50000000E+06      10.00000000
  1 3220  2.50000000E+06     550.00000000
  1 3221  2.50000000E+06     500.00000000
  1 3222  2.50000000E+06     400.00000000
  1 3223  2.50000000E+06     340.46481323
  1 3224  2.50000000E+06     350.00000000
  1 3225  2.50000000E+06     325.00000000
  1 3226  2.50000000E+06     418.17401123
  1 3227  2.50000000E+06     325.00000000
  1 3228  2.50000000E+06     250.00000000
  1 3229  2.50000000E+06     150.00000000
  1 3230  2.50000000E+06     100.00000000
  1 3231  2.50000000E+06     125.00000000
  1 3232  2.50000000E+06     225.00000000
  1 3233  2.50000000E+06      75.00000000
  1 3234  2.50000000E+06      20.00000191
  1 3267  2.50000000E+06     600.00000000
  1 3268  2.50000000E+06     500.00000000
  1 3269  2.50000000E+06     500.00000000
  1 3270  2.50000000E+06     450.00000000
  1 3271  2.50000000E+06     351.67300415
  1 3272  2.50000000E+06     325.00000000
  1 3273  2.50000000E+06     400.00000000
  1 3274  2.50000000E+06     350.00000000
  1 3275  2.50000000E+06     275.00000000
  1 3276  2.50000000E+06     196.07980347
  1 3277  2.50000000E+06     125.00000000
  1 3278  2.50000000E+06     125.00000000
  1 3279  2.50000000E+06     100.00000000
  1 3280  2.50000000E+06     100.00000000
  1 3281  2.50000000E+06      20.00000000
  1 3314  2.50000000E+06     550.00000000
  1 3315  2.50000000E+06     525.00000000
  1 3316  2.50000000E+06     500.00000000
  1 3317  2.50000000E+06     450.00000000
  1 3318  2.50000000E+06     350.00000000
  1 3319  2.50000000E+06     325.00000000
  1 3320  2.50000000E+06     300.00000000
  1 3321  2.50000000E+06     325.02371216
  1 3322  2.50000000E+06     248.73739624
  1 3323  2.50000000E+06     207.44740295
  1 3324  2.50000000E+06     100.00000000
  1 3325  2.50000000E+06      50.00000000
  1 3361  2.50000000E+06     550.00000000
  1 3362  2.50000000E+06     550.00000000
  1 3363  2.50000000E+06     500.00000000
  1 3364  2.50000000E+06     400.00000000
  1 3365  2.50000000E+06     350.00000000
  1 3366  2.50000000E+06     300.00000000
  1 3367  2.50000000E+06     225.00000000
  1 3368  2.50000000E+06     275.00000000
  1 3369  2.50000000E+06     218.37080383
  1 3370  2.50000000E+06     165.57009888
  1 3371  2.50000000E+06      50.00000000
  1 3372  2.50000000E+06      10.00000000
  1 3373  2.50000000E+06     115.63378906
  1 3407  2.50000000E+06     600.00000000
  1 3408  2.50000000E+06     550.00000000
  1 3409  2.50000000E+06     525.00000000
  1 3410  2.50000000E+06     500.00000000
  1 3411  2.50000000E+06     403.59310913
  1 3412  2.50000000E+06     350.00000000
  1 3413  2.50000000E+06     355.22531128
  1 3414  2.50000000E+06     200.00000000
  1 3415  2.50000000E+06     175.00000000
  1 3416  2.50000000E+06     175.00000000
  1 3417  2.50000000E+06     160.89320374
  1 3418  2.50000000E+06     150.00000000
  1 3419  2.50000000E+06      75.00000000
  1 3420  2.50000000E+06     175.00000000
  1 3421  2.50000000E+06     200.00000000
  1 3454  2.50000000E+06     550.00000000
  1 3455  2.50000000E+06     535.00000000
  1 3456  2.50000000E+06     525.00000000
  1 3457  2.50000000E+06     500.00000000
  1 3458  2.50000000E+06     475.00000000
  1 3459  2.50000000E+06     450.00000000
  1 3460  2.50000000E+06     400.00000000
  1 3461  2.50000000E+06     350.00000000
  1 3462  2.50000000E+06     250.00000000
  1 3463  2.50000000E+06     160.00000000
  1 3464  2.50000000E+06     178.74099731
  1 3465  2.50000000E+06     250.00000000
  1 3466  2.50000000E+06     195.20910645
  1 3467  2.50000000E+06     200.00000000
  1 3468  2.50000000E+06     200.00000000
  1 3501  2.50000000E+06     500.00000000
  1 3502  2.50000000E+06     550.00000000
  1 3503  2.50000000E+06     525.00000000
  1 3504  2.50000000E+06     500.00000000
  1 3505  2.50000000E+06     475.00000000
  1 3506  2.50000000E+06     425.00000000
  1 3507  2.50000000E+06     400.00000000
  1 3508  2.50000000E+06     375.00000000
  1 3509  2.50000000E+06     325.00000000
  1 3510  2.50000000E+06     275.00000000
  1 3511  2.50000000E+06     250.00000000
  1 3512  2.50000000E+06     225.00000000
  1 3513  2.50000000E+06     200.00000000
  1 3514  2.50000000E+06     200.00000000
  1 3515  2.50000000E+06     200.00000000
  1 3548  2.50000000E+06     487.47839355
  1 3549  2.50000000E+06     500.00000000
  1 3550  2.50000000E+06     525.00000000
  1 3551  2.50000000E+06     500.00000000
  1 3552  2.50000000E+06     450.00000000
  1 3553  2.50000000E+06     429.00000000
  1 3554  2.50000000E+06     400.00000000
  1 3555  2.50000000E+06     350.00000000
  1 3556  2.50000000E+06     346.52151489
  1 3557  2.50000000E+06     278.98110962
  1 3558  2.50000000E+06     259.89608765
  1 3559  2.50000000E+06     275.00000000
  1 3560  2.50000000E+06     248.08850098
  1 3561  2.50000000E+06     250.00000000
  1 3562  2.50000000E+06     200.00000000
  1 3595  2.50000000E+06     479.28689575
  1 3596  2.50000000E+06     500.00000000
  1 3597  2.50000000E+06     500.00000000
  1 3598  2.50000000E+06     475.00000000
  1 3599  2.50000000E+06     431.72268677
  1 3600  2.50000000E+06     389.27029419
  1 3601  2.50000000E+06     350.00000000
  1 3602  2.50000000E+06     350.00000000
  1 3603  2.50000000E+06     300.00000000
  1 3604  2.50000000E+06     300.62969971
  1 3605  2.50000000E+06     350.00000000
  1 3606  2.50000000E+06     350.00000000
  1 3607  2.50000000E+06     350.00000000
  1 3608  2.50000000E+06     250.00000000
  1 3609  2.50000000E+06     100.00000000
  1 3641  2.50000000E+06     575.00000000
  1 3642  2.50000000E+06     508.23849487
  1 3643  2.50000000E+06     450.00000000
  1 3644  2.50000000E+06     500.00000000
  1 3645  2.50000000E+06     475.00000000
  1 3646  2.50000000E+06     450.00000000
  1 3647  2.50000000E+06     375.00000000
  1 3648  2.50000000E+06     370.00000000
  1 3649  2.50000000E+06     375.00000000
  1 3650  2.50000000E+06     350.00000000
  1 3651  2.50000000E+06     355.00000000
  1 3652  2.50000000E+06     350.00000000
  1 3653  2.50000000E+06     400.00000000
  1 3654  2.50000000E+06     325.00000000
  1 3655  2.50000000E+06     275.00000000
  1 3656  2.50000000E+06     100.00000000
  1 3687  2.50000000E+06     575.00000000
  1 3688  2.50000000E+06     508.23849487
  1 3689  2.50000000E+06     550.00000000
  1 3690  2.50000000E+06     481.83340454
  1 3691  2.50000000E+06     400.00000000
  1 3692  2.50000000E+06     375.00000000
  1 3693  2.50000000E+06     400.00000000