# File generated by Flopy version 3.3.4 on 08/27/2022 at 17:07:13.
BEGIN options
  SAVE_FLOWS
  VARIABLECV  DEWATERED
  PERCHED
  SAVE_SPECIFIC_DISCHARGE
  SAVE_SATURATION
END options

BEGIN griddata
  icelltype
    CONSTANT  1
  k  LAYERED
    INTERNAL  FACTOR  1.0
           0.10000000       0.10000000       0.10000000       0.10000000       0.10000000       0.10000000       0.10000000       0.10000000       0.10000000       0.10000000       0.10000000       0.10000000       0.10000000       0.10000000       0.10000000       0.10000000       0.10000000       0.10000000       0.10000000       0.10000000
           0.10000000       0.10000000       0.10000000       0.10000000       0.10000000       0.10000000       0.10000000       0.10000000       0.10000000       0.10000000       0.10000000       0.10000000       0.10000000       0.10000000       0.10000000       0.10000000       0.10000000       0.10000000       0.10000000       0.10000000
           0.10000000       0.10000000       0.10000000       0.10000000       0.10000000       0.10000000       0.10000000       0.10000000       0.10000000       0.10000000       0.10000000       0.10000000       0.10000000       0.10000000       0.10000000       0.10000000       0.10000000       0.10000000       0.10000000       0.10000000
           0.10000000       0.10000000       0.10000000       0.10000000       0.10000000       0.10000000       0.10000000       0.10000000       0.10000000       0.10000000       0.10000000       0.10000000       0.10000000       0.10000000       0.10000000       0.10000000       0.10000000       0.10000000       0.10000000       0.10000000
           0.10000000       0.10000000       0.10000000       0.10000000       0.10000000       0.10000000       0.10000000       0.10000000       0.10000000       0.10000000       0.10000000       0.10000000       0.10000000       0.10000000       0.10000000       0.10000000       0.10000000       0.10000000       0.10000000       0.10000000
           0.10000000       0.10000000       0.10000000       0.10000000       0.10000000       0.10000000       0.10000000       0.10000000       0.10000000       0.10000000       0.10000000       0.10000000       0.10000000       0.10000000       0.10000000       0.10000000       0.10000000       0.10000000       0.10000000       0.10000000
           0.10000000       0.10000000       0.10000000       0.10000000       0.10000000       0.10000000       0.10000000       0.10000000       0.10000000       0.10000000       0.10000000       0.10000000       0.10000000       0.10000000       0.10000000       0.10000000       0.10000000       0.10000000       0.10000000       0.10000000
           0.10000000       0.10000000       0.10000000       0.10000000       0.10000000       0.10000000       0.10000000       0.10000000       0.10000000       0.10000000       0.10000000       0.10000000       0.10000000       0.10000000       0.10000000       0.10000000       0.10000000       0.10000000       0.10000000       0.10000000
           0.10000000       0.10000000       0.10000000       0.10000000       0.10000000       0.10000000       0.10000000       0.10000000       0.10000000       0.10000000       0.10000000       0.10000000       0.10000000       0.10000000       0.10000000       0.10000000       0.10000000       0.10000000       0.10000000       0.10000000
           0.10000000       0.10000000       0.10000000       0.10000000       0.10000000       0.10000000       0.10000000       0.10000000       0.10000000       0.10000000       0.10000000       0.10000000       0.10000000       0.10000000       0.10000000       0.10000000       0.10000000       0.10000000       0.10000000       0.10000000
           0.10000000       0.10000000       0.10000000       0.10000000       0.10000000       0.10000000       0.10000000       0.10000000       0.10000000       0.10000000       0.10000000       0.10000000       0.10000000       0.10000000       0.10000000       0.10000000       0.10000000       0.10000000       0.10000000       0.10000000
           0.10000000       0.10000000       0.10000000       0.10000000       0.10000000       0.10000000       0.10000000       0.10000000       0.10000000       0.10000000       0.10000000       0.10000000       0.10000000       0.10000000       0.10000000       0.10000000       0.10000000       0.10000000       0.10000000       0.10000000
           0.10000000       0.10000000       0.10000000       0.10000000       0.10000000       0.10000000       0.10000000       0.10000000       0.10000000       0.10000000       0.10000000       0.10000000       0.10000000       0.10000000       0.10000000       0.10000000       0.10000000       0.10000000       0.10000000       0.10000000
           0.10000000       0.10000000       0.10000000       0.10000000       0.10000000       0.10000000       0.10000000       0.10000000       0.10000000       0.10000000       0.10000000       0.10000000       0.10000000       0.10000000       0.10000000       0.10000000       0.10000000       0.10000000       0.10000000       0.10000000
           0.10000000       0.10000000       0.10000000       0.10000000       0.10000000       0.10000000       0.10000000       0.10000000       0.10000000       0.10000000       0.10000000       0.10000000       0.10000000       0.10000000       0.10000000       0.10000000       0.10000000       0.10000000       0.10000000       0.10000000
           0.10000000       0.10000000       0.10000000       0.10000000       0.10000000       0.10000000       0.10000000       0.10000000       0.10000000       0.10000000       0.10000000       0.10000000       0.10000000       0.10000000       0.10000000       0.10000000       0.10000000       0.10000000       0.10000000       0.10000000
           0.10000000       0.10000000       0.10000000       0.10000000       0.10000000       0.10000000       0.10000000       0.10000000       0.10000000       0.10000000       0.10000000       0.10000000       0.10000000       0.10000000       0.10000000       0.10000000       0.10000000       0.10000000       0.10000000       0.10000000
           0.10000000       0.10000000       0.10000000       0.10000000       0.10000000       0.10000000       0.10000000       0.10000000       0.10000000       0.10000000       0.10000000       0.10000000       0.10000000       0.10000000       0.10000000       0.10000000       0.10000000       0.10000000       0.10000000       0.10000000
           0.10000000       0.10000000       0.10000000       0.10000000       0.10000000       0.10000000       0.10000000       0.10000000       0.10000000       0.10000000       0.10000000       0.10000000       0.10000000       0.10000000       0.10000000       0.10000000       0.10000000       0.10000000       0.10000000       0.10000000
           0.10000000       0.10000000       0.10000000       0.10000000       0.10000000       0.10000000       0.10000000       0.10000000       0.10000000       0.10000000       0.10000000       0.10000000       0.10000000       0.10000000       0.10000000       0.10000000       0.10000000       0.10000000       0.10000000       0.10000000
           0.10000000       0.10000000       0.10000000       0.10000000       0.10000000       0.10000000       0.10000000       0.10000000       0.10000000       0.10000000       0.10000000       0.10000000       0.10000000       0.10000000       0.10000000       0.10000000       0.10000000       0.10000000       0.10000000       0.10000000
           0.10000000       0.10000000       0.10000000       0.10000000       0.10000000       0.10000000       0.10000000       0.10000000       0.10000000       0.10000000       0.10000000       0.10000000       0.10000000       0.10000000       0.10000000       0.10000000       0.10000000       0.10000000       0.10000000       0.10000000
           0.10000000       0.10000000       0.10000000       0.10000000       0.10000000       0.10000000       0.10000000       0.10000000       0.10000000       0.10000000       0.10000000       0.10000000       0.10000000       0.10000000       0.10000000       0.10000000       0.10000000       0.10000000       0.10000000       0.10000000
           0.10000000       0.10000000       0.10000000       0.10000000       0.10000000       0.10000000       0.10000000       0.10000000       0.10000000       0.10000000       0.10000000       0.10000000       0.10000000       0.10000000       0.10000000       0.10000000       0.10000000       0.10000000       0.10000000       0.10000000
           0.10000000       0.10000000       0.10000000       0.10000000       0.10000000       0.10000000       0.10000000       0.10000000       0.10000000       0.10000000       0.10000000       0.10000000       0.10000000       0.10000000       0.10000000       0.10000000       0.10000000       0.10000000       0.10000000       0.10000000
           0.10000000       0.10000000       0.10000000       0.10000000       0.10000000       0.10000000       0.10000000       0.10000000       0.10000000       0.10000000       0.10000000       0.10000000       0.10000000       0.10000000       0.10000000       0.10000000       0.10000000       0.10000000       0.10000000       0.10000000
           0.10000000       0.10000000       0.10000000       0.10000000       0.10000000       0.10000000       0.10000000       0.10000000       0.10000000       0.10000000       0.10000000       0.10000000       0.10000000       0.10000000       0.10000000       0.10000000       0.10000000       0.10000000       0.10000000       0.10000000
           0.10000000       0.10000000       0.10000000       0.10000000       0.10000000       0.10000000       0.10000000       0.10000000       0.10000000       0.10000000       0.10000000       0.10000000       0.10000000       0.10000000       0.10000000       0.10000000       0.10000000       0.10000000       0.10000000       0.10000000
           0.10000000       0.10000000       0.10000000       0.10000000       0.10000000       0.10000000       0.10000000       0.10000000       0.10000000       0.10000000       0.10000000       0.10000000       0.10000000       0.10000000       0.10000000       0.10000000       0.10000000       0.10000000       0.10000000       0.10000000
           0.10000000       0.10000000       0.10000000       0.10000000       0.10000000       0.10000000       0.10000000       0.10000000       0.10000000       0.10000000       0.10000000       0.10000000       0.10000000       0.10000000       0.10000000       0.10000000       0.10000000       0.10000000       0.10000000       0.10000000
           0.10000000       0.10000000       0.10000000       0.10000000       0.10000000       0.10000000       0.10000000       0.10000000       0.10000000       0.10000000       0.10000000       0.10000000       0.10000000       0.10000000       0.10000000       0.10000000       0.10000000       0.10000000       0.10000000       0.10000000
           0.10000000       0.10000000       0.10000000       0.10000000       0.10000000       0.10000000       0.10000000       0.10000000       0.10000000       0.10000000       0.10000000       0.10000000       0.10000000       0.10000000       0.10000000       0.10000000       0.10000000       0.10000000       0.10000000       0.10000000
           0.10000000       0.10000000       0.10000000       0.10000000       0.10000000       0.10000000       0.10000000       0.10000000       0.10000000       0.10000000       0.10000000       0.10000000       0.10000000       0.10000000       0.10000000       0.10000000       0.10000000       0.10000000       0.10000000       0.10000000
           0.10000000       0.10000000       0.10000000       0.10000000       0.10000000       0.10000000       0.10000000       0.10000000       0.10000000       0.10000000       0.10000000       0.10000000       0.10000000       0.10000000       0.10000000       0.10000000       0.10000000       0.10000000       0.10000000       0.10000000
           0.10000000       0.10000000       0.10000000       0.10000000       0.10000000       0.10000000       0.10000000       0.10000000       0.10000000       0.10000000       0.10000000       0.10000000       0.10000000       0.10000000       0.10000000       0.10000000       0.10000000       0.10000000       0.10000000       0.10000000
           0.10000000       0.10000000       0.10000000       0.10000000       0.10000000       0.10000000       0.10000000       0.10000000       0.10000000       0.10000000       0.10000000       0.10000000       0.10000000       0.10000000       0.10000000       0.10000000       0.10000000       0.10000000       0.10000000       0.10000000
           0.10000000       0.10000000       0.10000000       0.10000000       0.10000000       0.10000000       0.10000000       0.10000000       0.10000000       0.10000000       0.10000000       0.10000000       0.10000000       0.10000000       0.10000000       0.10000000       0.10000000       0.10000000       0.10000000       0.10000000
           0.10000000       0.10000000       0.10000000       0.10000000       0.10000000       0.10000000       0.10000000       0.10000000       0.10000000       0.10000000       0.10000000       0.10000000       0.10000000       0.10000000       0.10000000       0.10000000       0.10000000       0.10000000       0.10000000       0.10000000
           0.10000000       0.10000000       0.10000000       0.10000000       0.10000000       0.10000000       0.10000000       0.10000000       0.10000000       0.10000000       0.10000000       0.10000000       0.10000000       0.10000000       0.10000000       0.10000000       0.10000000       0.10000000       0.10000000       0.10000000
           0.10000000       0.10000000       0.10000000       0.10000000       0.10000000       0.10000000       0.10000000       0.10000000       0.10000000       0.10000000       0.10000000       0.10000000       0.10000000       0.10000000       0.10000000       0.10000000       0.10000000       0.10000000       0.10000000       0.10000000
           0.10000000       0.10000000       0.10000000       0.10000000       0.10000000       0.10000000       0.10000000       0.10000000       0.10000000       0.10000000       0.10000000       0.10000000       0.10000000       0.10000000       0.10000000       0.10000000       0.10000000       0.10000000       0.10000000       0.10000000
           0.10000000       0.10000000       0.10000000       0.10000000       0.10000000       0.10000000       0.10000000       0.10000000       0.10000000       0.10000000       0.10000000       0.10000000       0.10000000       0.10000000       0.10000000       0.10000000       0.10000000       0.10000000       0.10000000       0.10000000
           0.10000000       0.10000000       0.10000000       0.10000000       0.10000000       0.10000000       0.10000000       0.10000000       0.10000000       0.10000000       0.10000000       0.10000000       0.10000000       0.10000000       0.10000000       0.10000000       0.10000000       0.10000000       0.10000000       0.10000000
           0.10000000       0.10000000       0.10000000       0.10000000       0.10000000       0.10000000       0.10000000       0.10000000       0.10000000       0.10000000       0.10000000       0.10000000       0.10000000       0.10000000       0.10000000       0.10000000       0.10000000       0.10000000       0.10000000       0.10000000
           0.10000000       0.10000000       0.10000000       0.10000000       0.10000000       0.10000000       0.10000000       0.10000000       0.10000000       0.10000000       0.10000000       0.10000000       0.10000000       0.10000000       0.10000000       0.10000000       0.10000000       0.10000000       0.10000000       0.10000000
           0.10000000       0.10000000       0.10000000       0.10000000       0.10000000       0.10000000       0.10000000       0.10000000       0.10000000       0.10000000       0.10000000       0.10000000       0.10000000       0.10000000       0.10000000       0.10000000       0.10000000       0.10000000       0.10000000       0.10000000
           0.10000000       0.10000000       0.10000000       0.10000000       0.10000000       0.10000000       0.10000000       0.10000000       0.10000000       0.10000000       0.10000000       0.10000000       0.10000000       0.10000000       0.10000000       0.10000000       0.10000000       0.10000000       0.10000000       0.10000000
           0.10000000       0.10000000       0.10000000       0.10000000       0.10000000       0.10000000       0.10000000       0.10000000       0.10000000       0.10000000       0.10000000       0.10000000       0.10000000       0.10000000       0.10000000       0.10000000       0.10000000       0.10000000       0.10000000       0.10000000
           0.10000000       0.10000000       0.10000000       0.10000000       0.10000000       0.10000000       0.10000000       0.10000000       0.10000000       0.10000000       0.10000000       0.10000000       0.10000000       0.10000000       0.10000000       0.10000000       0.10000000       0.10000000       0.10000000       0.10000000
           0.10000000       0.10000000       0.10000000       0.10000000       0.10000000       0.10000000       0.10000000       0.10000000       0.10000000       0.10000000       0.10000000       0.10000000       0.10000000       0.10000000       0.10000000       0.10000000       0.10000000       0.10000000       0.10000000       0.10000000
           0.10000000       0.10000000       0.10000000       0.10000000       0.10000000       0.10000000       0.10000000       0.10000000       0.10000000       0.10000000       0.10000000       0.10000000       0.10000000       0.10000000       0.10000000       0.10000000       0.10000000       0.10000000       0.10000000       0.10000000
           0.10000000       0.10000000       0.10000000       0.10000000       0.10000000       0.10000000       0.10000000       0.10000000       0.10000000       0.10000000       0.10000000       0.10000000       0.10000000       0.10000000       0.10000000       0.10000000       0.10000000       0.10000000       0.10000000       0.10000000
           0.10000000       0.10000000       0.10000000       0.10000000       0.10000000       0.10000000       0.10000000       0.10000000       0.10000000       0.10000000       0.10000000       0.10000000       0.10000000       0.10000000       0.10000000       0.10000000       0.10000000       0.10000000       0.10000000       0.10000000
           0.10000000       0.10000000       0.10000000       0.10000000       0.10000000       0.10000000       0.10000000       0.10000000       0.10000000       0.10000000       0.10000000       0.10000000       0.10000000       0.10000000       0.10000000       0.10000000       0.10000000       0.10000000       0.10000000       0.10000000
           0.10000000       0.10000000       0.10000000       0.10000000       0.10000000       0.10000000       0.10000000       0.10000000       0.10000000       0.10000000       0.10000000       0.10000000       0.10000000       0.10000000       0.10000000       0.10000000       0.10000000       0.10000000       0.10000000       0.10000000
           0.10000000       0.10000000       0.10000000       0.10000000       0.10000000       0.10000000       0.10000000       0.10000000       0.10000000       0.10000000       0.10000000       0.10000000       0.10000000       0.10000000       0.10000000       0.10000000       0.10000000       0.10000000       0.10000000       0.10000000
           0.10000000       0.10000000       0.10000000       0.10000000       0.10000000       0.10000000       0.10000000       0.10000000       0.10000000       0.10000000       0.10000000       0.10000000       0.10000000       0.10000000       0.10000000       0.10000000       0.10000000       0.10000000       0.10000000       0.10000000
           0.10000000       0.10000000       0.10000000       0.10000000       0.10000000       0.10000000       0.10000000       0.10000000       0.10000000       0.10000000       0.10000000       0.10000000       0.10000000       0.10000000       0.10000000       0.10000000       0.10000000       0.10000000       0.10000000       0.10000000
           0.10000000       0.10000000       0.10000000       0.10000000       0.10000000       0.10000000       0.10000000       0.10000000       0.10000000       0.10000000       0.10000000       0.10000000       0.10000000       0.10000000       0.10000000       0.10000000       0.10000000       0.10000000       0.10000000       0.10000000
           0.10000000       0.10000000       0.10000000       0.10000000       0.10000000       0.10000000       0.10000000       0.10000000       0.10000000       0.10000000       0.10000000       0.10000000       0.10000000       0.10000000       0.10000000       0.10000000       0.10000000       0.10000000       0.10000000       0.10000000
           0.10000000       0.10000000       0.10000000       0.10000000       0.10000000       0.10000000       0.10000000       0.10000000       0.10000000       0.10000000       0.10000000       0.10000000       0.10000000       0.10000000       0.10000000       0.10000000       0.10000000       0.10000000       0.10000000       0.10000000
           0.10000000       0.10000000       0.10000000       0.10000000       0.10000000       0.10000000       0.10000000       0.10000000       0.10000000       0.10000000       0.10000000       0.10000000       0.10000000       0.10000000       0.10000000       0.10000000       0.10000000       0.10000000       0.10000000       0.10000000
           0.10000000       0.10000000       0.10000000       0.10000000       0.10000000       0.10000000       0.10000000       0.10000000       0.10000000       0.10000000       0.10000000       0.10000000       0.10000000       0.10000000       0.10000000       0.10000000       0.10000000       0.10000000       0.10000000       0.10000000
           0.10000000       0.10000000       0.10000000       0.10000000       0.10000000       0.10000000       0.10000000       0.10000000       0.10000000       0.10000000       0.10000000       0.10000000       0.10000000       0.10000000       0.10000000       0.10000000       0.10000000       0.10000000       0.10000000       0.10000000
           0.10000000       0.10000000       0.10000000       0.10000000       0.10000000       0.10000000       0.10000000       0.10000000       0.10000000       0.10000000       0.10000000       0.10000000       0.10000000       0.10000000       0.10000000       0.10000000       0.10000000       0.10000000       0.10000000       0.10000000
           0.10000000       0.10000000       0.10000000       0.10000000       0.10000000       0.10000000       0.10000000       0.10000000       0.10000000       0.10000000       0.10000000       0.10000000       0.10000000       0.10000000       0.10000000       0.10000000       0.10000000       0.10000000       0.10000000       0.10000000
           0.10000000       0.10000000       0.10000000       0.10000000       0.10000000       0.10000000       0.10000000       0.10000000       0.10000000       0.10000000       0.10000000       0.10000000       0.10000000       0.10000000       0.10000000       0.10000000       0.10000000       0.10000000       0.10000000       0.10000000
           0.10000000       0.10000000       0.10000000       0.10000000       0.10000000       0.10000000       0.10000000       0.10000000       0.10000000       0.10000000       0.10000000       0.10000000       0.10000000       0.10000000       0.10000000       0.10000000       0.10000000       0.10000000       0.10000000       0.10000000
           0.10000000       0.10000000       0.10000000       0.10000000       0.10000000       0.10000000       0.10000000       0.10000000       0.10000000       0.10000000       0.10000000       0.10000000       0.10000000       0.10000000       0.10000000       0.10000000       0.10000000       0.10000000       0.10000000       0.10000000
           0.10000000       0.10000000       0.10000000       0.10000000       0.10000000       0.10000000       0.10000000       0.10000000       0.10000000       0.10000000       0.10000000       0.10000000       0.10000000       0.10000000       0.10000000       0.10000000       0.10000000       0.10000000       0.10000000       0.10000000
           0.10000000       0.10000000       0.10000000       0.10000000       0.10000000       0.10000000       0.10000000       0.10000000       0.10000000       0.10000000       0.10000000       0.10000000       0.10000000       0.10000000       0.10000000       0.10000000       0.10000000       0.10000000       0.10000000       0.10000000
           0.10000000       0.10000000       0.10000000       0.10000000       0.10000000       0.10000000       0.10000000       0.10000000       0.10000000       0.10000000       0.10000000       0.10000000       0.10000000       0.10000000       0.10000000       0.10000000       0.10000000       0.10000000       0.10000000       0.10000000
           0.10000000       0.10000000       0.10000000       0.10000000       0.10000000       0.10000000       0.10000000       0.10000000       0.10000000       0.10000000       0.10000000       0.10000000       0.10000000       0.10000000       0.10000000       0.10000000       0.10000000       0.10000000       0.10000000       0.10000000
           0.10000000       0.10000000       0.10000000       0.10000000       0.10000000       0.10000000       0.10000000       0.10000000       0.10000000       0.10000000       0.10000000       0.10000000       0.10000000       0.10000000       0.10000000       0.10000000       0.10000000       0.10000000       0.10000000       0.10000000
           0.10000000       0.10000000       0.10000000       0.10000000       0.10000000       0.10000000       0.10000000       0.10000000       0.10000000       0.10000000       0.10000000       0.10000000       0.10000000       0.10000000       0.10000000       0.10000000       0.10000000       0.10000000       0.10000000       0.10000000
           0.10000000       0.10000000       0.10000000       0.10000000       0.10000000       0.10000000       0.10000000       0.10000000       0.10000000       0.10000000       0.10000000       0.10000000       0.10000000       0.10000000       0.10000000       0.10000000       0.10000000       0.10000000       0.10000000       0.10000000
           0.10000000       0.10000000       0.10000000       0.10000000       0.10000000       0.10000000       0.10000000       0.10000000       0.10000000       0.10000000       0.10000000       0.10000000       0.10000000       0.10000000       0.10000000       0.10000000       0.10000000       0.10000000       0.10000000       0.10000000
           0.10000000       0.10000000       0.10000000       0.10000000       0.10000000       0.10000000       0.10000000       0.10000000       0.10000000       0.10000000       0.10000000       0.10000000       0.10000000       0.10000000       0.10000000       0.10000000       0.10000000       0.10000000       0.10000000       0.10000000
           0.10000000       0.10000000       0.10000000       0.10000000       0.10000000       0.10000000       0.10000000       0.10000000       0.10000000       0.10000000       0.10000000       0.10000000       0.10000000       0.10000000       0.10000000       0.10000000       0.10000000       0.10000000       0.10000000       0.10000000
           0.10000000       0.10000000       0.10000000       0.10000000       0.10000000       0.10000000       0.10000000       0.10000000       0.10000000       0.10000000       0.10000000       0.10000000       0.10000000       0.10000000       0.10000000       0.10000000       0.10000000       0.10000000       0.10000000       0.10000000
           0.10000000       0.10000000       0.10000000       0.10000000       0.10000000       0.10000000       0.10000000       0.10000000       0.10000000       0.10000000       0.10000000       0.10000000       0.10000000       0.10000000       0.10000000       0.10000000       0.10000000       0.10000000       0.10000000       0.10000000
           0.10000000       0.10000000       0.10000000       0.10000000       0.10000000       0.10000000       0.10000000       0.10000000       0.10000000       0.10000000       0.10000000       0.10000000       0.10000000       0.10000000       0.10000000       0.10000000       0.10000000       0.10000000       0.10000000       0.10000000
           0.10000000       0.10000000       0.10000000       0.10000000       0.10000000       0.10000000       0.10000000       0.10000000       0.10000000       0.10000000       0.10000000       0.10000000       0.10000000       0.10000000       0.10000000       0.10000000       0.10000000       0.10000000       0.10000000       0.10000000
           0.10000000       0.10000000       0.10000000       0.10000000       0.10000000       0.10000000       0.10000000       0.10000000       0.10000000       0.10000000       0.10000000       0.10000000       0.10000000       0.10000000       0.10000000       0.10000000       0.10000000       0.10000000       0.10000000       0.10000000
           0.10000000       0.10000000       0.10000000       0.10000000       0.10000000       0.10000000       0.10000000       0.10000000       0.10000000       0.10000000       0.10000000       0.10000000       0.10000000       0.10000000       0.10000000       0.10000000       0.10000000       0.10000000       0.10000000       0.10000000
           0.10000000       0.10000000       0.10000000       0.10000000       0.10000000       0.10000000       0.10000000       0.10000000       0.10000000       0.10000000       0.10000000       0.10000000       0.10000000       0.10000000       0.10000000       0.10000000       0.10000000       0.10000000       0.10000000       0.10000000