# File generated by Flopy version 3.3.4 on 08/27/2022 at 17:07:11.
BEGIN options
  TIME_UNITS  days
  START_DATE_TIME  2022-08-27t17:06:04
END options

BEGIN dimensions
  NPER  1
END dimensions

BEGIN perioddata
  5.84000000E+05  1       1.00000000
END perioddata

