# File generated by Flopy version 3.3.4 on 08/27/2022 at 17:07:12.
BEGIN options
  SAVE_FLOWS
END options

BEGIN packages
  DISV6  test.disv  disv
  NPF6  test.npf  npf
  STO6  test.sto  sto
  IC6  test.ic  ic
  CHD6  test.chd  chd_0
  DRN6  test.drn  drn_0
  WEL6  test.wel  wel_0
  RCH6  test.rcha  rcha_0
  OC6  test.oc  oc
END packages

