# File generated by Flopy version 3.3.4 on 08/27/2022 at 17:07:12.
BEGIN options
  LENGTH_UNITS  meters
  XORIGIN       0.00000000
  YORIGIN       0.00000000
  ANGROT       0.00000000
END options

BEGIN dimensions
  NLAY  4
  NCPL  4606
  NVERT  4752
END dimensions

BEGIN griddata
  top
    INTERNAL  FACTOR  1.0
      1600.00000000    1600.00000000    1600.00000000    1600.00000000    1600.00000000    1600.00000000    1600.00000000    1600.00000000    1600.00000000    1600.00000000    1600.00000000    1600.00000000    1600.00000000    1600.00000000    1600.00000000    1600.00000000    1600.00000000    1600.00000000    1600.00000000    1600.00000000
      1600.00000000    1600.00000000    1600.00000000    1600.00000000    1600.00000000    1600.00000000    1600.00000000    1600.00000000    1600.00000000    1600.00000000    1600.00000000    1600.00000000    1600.00000000    1600.00000000    1600.00000000    1600.00000000    1600.00000000    1600.00000000    1600.00000000    1600.00000000
      1600.00000000    1600.00000000    1600.00000000    1600.00000000    1600.00000000    1600.00000000    1600.00000000    1600.00000000    1600.00000000    1600.00000000    1600.00000000    1600.00000000    1600.00000000    1600.00000000    1600.00000000    1600.00000000    1600.00000000    1600.00000000    1600.00000000    1600.00000000
      1600.00000000    1600.00000000    1600.00000000    1600.00000000    1600.00000000    1600.00000000    1600.00000000    1600.00000000    1600.00000000    1600.00000000    1600.00000000    1600.00000000    1600.00000000    1600.00000000    1600.00000000    1600.00000000    1600.00000000    1600.00000000    1600.00000000    1600.00000000
      1600.00000000    1600.00000000    1600.00000000    1600.00000000    1600.00000000    1600.00000000    1600.00000000    1600.00000000    1600.00000000    1600.00000000    1600.00000000    1600.00000000    1600.00000000    1600.00000000    1600.00000000    1600.00000000    1600.00000000    1600.00000000    1600.00000000    1600.00000000
      1600.00000000    1600.00000000    1600.00000000    1600.00000000    1600.00000000    1600.00000000    1600.00000000    1600.00000000    1600.00000000    1600.00000000    1600.00000000    1600.00000000    1600.00000000    1600.00000000    1600.00000000    1600.00000000    1600.00000000    1600.00000000    1600.00000000    1600.00000000
      1600.00000000    1600.00000000    1600.00000000    1600.00000000    1600.00000000    1600.00000000    1600.00000000    1600.00000000    1600.00000000    1600.00000000    1600.00000000    1600.00000000    1600.00000000    1600.00000000    1600.00000000    1600.00000000    1600.00000000    1600.00000000    1600.00000000    1600.00000000
      1600.00000000    1600.00000000    1600.00000000    1600.00000000    1600.00000000    1600.00000000    1600.00000000    1600.00000000    1600.00000000    1600.00000000    1600.00000000    1600.00000000    1600.00000000    1600.00000000    1600.00000000    1600.00000000    1600.00000000    1600.00000000    1600.00000000    1600.00000000
      1600.00000000    1600.00000000    1600.00000000    1600.00000000    1600.00000000    1600.00000000    1600.00000000    1600.00000000    1600.00000000    1600.00000000    1600.00000000    1600.00000000    1600.00000000    1600.00000000    1600.00000000    1600.00000000    1600.00000000    1600.00000000    1600.00000000    1600.00000000
      1600.00000000    1600.00000000    1600.00000000    1600.00000000    1600.00000000    1600.00000000    1600.00000000    1600.00000000    1600.00000000    1600.00000000    1600.00000000    1600.00000000    1600.00000000    1600.00000000    1600.00000000    1600.00000000    1600.00000000    1600.00000000    1600.00000000    1600.00000000
      1600.00000000    1600.00000000    1600.00000000    1600.00000000    1600.00000000    1600.00000000    1600.00000000    1600.00000000    1600.00000000    1600.00000000    1600.00000000    1600.00000000    1600.00000000    1600.00000000    1600.00000000    1600.00000000    1600.00000000    1600.00000000    1600.00000000    1600.00000000
      1600.00000000    1600.00000000    1600.00000000    1600.00000000    1600.00000000    1600.00000000    1600.00000000    1600.00000000    1600.00000000    1600.00000000    1600.00000000    1600.00000000    1600.00000000    1600.00000000    1600.00000000    1600.00000000    1600.00000000    1600.00000000    1600.00000000    1600.00000000
      1600.00000000    1600.00000000    1600.00000000    1600.00000000    1600.00000000    1600.00000000    1600.00000000    1600.00000000    1600.00000000    1600.00000000    1600.00000000    1600.00000000    1600.00000000    1600.00000000    1600.00000000    1600.00000000    1600.00000000    1600.00000000    1600.00000000    1600.00000000
      1600.00000000    1600.00000000    1600.00000000    1600.00000000    1600.00000000    1600.00000000    1600.00000000    1600.00000000    1600.00000000    1600.00000000    1600.00000000    1600.00000000    1600.00000000    1600.00000000    1600.00000000    1600.00000000    1600.00000000    1600.00000000    1600.00000000    1600.00000000
      1600.00000000    1600.00000000    1600.00000000    1600.00000000    1600.00000000    1600.00000000    1600.00000000    1600.00000000    1600.00000000    1600.00000000    1600.00000000    1600.00000000    1600.00000000    1600.00000000    1600.00000000    1600.00000000    1600.00000000    1600.00000000    1600.00000000    1600.00000000
      1600.00000000    1600.00000000    1600.00000000    1600.00000000    1600.00000000    1600.00000000    1600.00000000    1600.00000000    1600.00000000    1600.00000000    1600.00000000    1600.00000000    1600.00000000    1600.00000000    1600.00000000    1600.00000000    1600.00000000    1600.00000000    1600.00000000    1600.00000000
      1600.00000000    1600.00000000    1600.00000000    1600.00000000    1600.00000000    1600.00000000    1600.00000000    1600.00000000    1600.00000000    1600.00000000    1600.00000000    1600.00000000    1600.00000000    1600.00000000    1600.00000000    1600.00000000    1600.00000000    1600.00000000    1600.00000000    1600.00000000
      1600.00000000    1600.00000000    1600.00000000    1600.00000000    1600.00000000    1600.00000000    1600.00000000    1600.00000000    1600.00000000    1600.00000000    1600.00000000    1600.00000000    1600.00000000    1600.00000000    1600.00000000    1600.00000000    1600.00000000    1600.00000000    1600.00000000    1600.00000000
      1600.00000000    1600.00000000    1600.00000000    1600.00000000    1600.00000000    1600.00000000    1600.00000000    1600.00000000    1600.00000000    1600.00000000    1600.00000000    1600.00000000    1600.00000000    1600.00000000    1600.00000000    1600.00000000    1600.00000000    1600.00000000    1600.00000000    1600.00000000
      1600.00000000    1600.00000000    1600.00000000    1600.00000000    1600.00000000    1600.00000000    1600.00000000    1600.00000000    1600.00000000    1600.00000000    1600.00000000    1600.00000000    1600.00000000    1600.00000000    1600.00000000    1600.00000000    1600.00000000    1600.00000000    1600.00000000    1600.00000000
      1600.00000000    1600.00000000    1600.00000000    1600.00000000    1600.00000000    1600.00000000    1600.00000000    1600.00000000    1600.00000000    1600.00000000    1600.00000000    1600.00000000    1600.00000000    1600.00000000    1600.00000000    1600.00000000    1600.00000000    1600.00000000      30.00000000    1600.00000000
      1600.00000000    1600.00000000    1600.00000000    1600.00000000    1600.00000000    1600.00000000    1600.00000000    1600.00000000    1600.00000000    1600.00000000    1600.00000000    1600.00000000    1600.00000000    1600.00000000    1600.00000000    1600.00000000    1600.00000000    1600.00000000    1600.00000000    1600.00000000
      1600.00000000    1600.00000000    1600.00000000    1600.00000000    1600.00000000    1600.00000000    1600.00000000    1600.00000000    1600.00000000    1600.00000000    1600.00000000    1600.00000000    1600.00000000    1600.00000000    1600.00000000    1600.00000000    1600.00000000    1600.00000000    1600.00000000    1600.00000000
      1600.00000000    1600.00000000    1600.00000000    1600.00000000      50.00000000      30.00000000    1600.00000000    1600.00000000    1600.00000000    1600.00000000    1600.00000000    1600.00000000    1600.00000000    1600.00000000    1600.00000000    1600.00000000    1600.00000000    1600.00000000    1600.00000000    1600.00000000
      1600.00000000    1600.00000000    1600.00000000    1600.00000000    1600.00000000    1600.00000000    1600.00000000    1600.00000000    1600.00000000    1600.00000000    1600.00000000    1600.00000000    1600.00000000    1600.00000000    1600.00000000    1600.00000000    1600.00000000    1600.00000000    1600.00000000    1600.00000000
      1600.00000000    1600.00000000    1600.00000000    1600.00000000    1600.00000000    1600.00000000    1600.00000000    1600.00000000    1600.00000000    1600.00000000     250.00000000     150.00000000    1600.00000000    1600.00000000    1600.00000000    1600.00000000    1600.00000000    1600.00000000    1600.00000000    1600.00000000
      1600.00000000    1600.00000000    1600.00000000    1600.00000000    1600.00000000    1600.00000000    1600.00000000    1600.00000000    1600.00000000    1600.00000000    1600.00000000    1600.00000000    1600.00000000    1600.00000000    1600.00000000    1600.00000000    1600.00000000    1600.00000000    1600.00000000    1600.00000000
      1600.00000000    1600.00000000    1600.00000000    1600.00000000    1600.00000000    1600.00000000    1600.00000000    1600.00000000    1600.00000000    1600.00000000    1600.00000000    1600.00000000    1600.00000000    1600.00000000    1600.00000000    1600.00000000    1600.00000000     325.00000000    1600.00000000    1600.00000000
      1600.00000000    1600.00000000    1600.00000000    1600.00000000    1600.00000000    1600.00000000    1600.00000000    1600.00000000    1600.00000000    1600.00000000    1600.00000000    1600.00000000    1600.00000000    1600.00000000    1600.00000000    1600.00000000    1600.00000000    1600.00000000    1600.00000000    1600.00000000
      1600.00000000    1600.00000000    1600.00000000    1600.00000000    1600.00000000    1600.00000000    1600.00000000    1600.00000000    1600.00000000    1600.00000000    1600.00000000    1600.00000000    1600.00000000    1600.00000000    1600.00000000    1600.00000000    1600.00000000    1600.00000000    1600.00000000    1600.00000000
      1600.00000000    1600.00000000    1600.00000000    1600.00000000     200.00000000    1600.00000000    1600.00000000    1600.00000000    1600.00000000    1600.00000000    1600.00000000    1600.00000000    1600.00000000    1600.00000000    1600.00000000    1600.00000000    1600.00000000    1600.00000000    1600.00000000    1600.00000000
      1600.00000000    1600.00000000    1600.00000000    1600.00000000    1600.00000000    1600.00000000    1600.00000000    1600.00000000    1600.00000000    1600.00000000    1600.00000000    1600.00000000    1600.00000000    1600.00000000    1600.00000000    1600.00000000    1600.00000000    1600.00000000    1600.00000000    1600.00000000
      1600.00000000    1600.00000000    1600.00000000    1600.00000000    1600.00000000    1600.00000000    1600.00000000    1600.00000000    1600.00000000    1600.00000000    1600.00000000     150.00000000    1600.00000000    1600.00000000    1600.00000000    1600.00000000    1600.00000000    1600.00000000    1600.00000000    1600.00000000
      1600.00000000    1600.00000000    1600.00000000    1600.00000000    1600.00000000    1600.00000000    1600.00000000    1600.00000000    1600.00000000    1600.00000000    1600.00000000    1600.00000000    1600.00000000    1600.00000000    1600.00000000    1600.00000000    1600.00000000    1600.00000000    1600.00000000    1600.00000000
      1600.00000000    1600.00000000    1600.00000000    1600.00000000    1600.00000000    1600.00000000    1600.00000000    1600.00000000    1600.00000000    1600.00000000    1600.00000000    1600.00000000    1600.00000000    1600.00000000    1600.00000000    1600.00000000    1600.00000000    1600.00000000    1600.00000000     200.00000000
      1600.00000000    1600.00000000    1600.00000000    1600.00000000    1600.00000000    1600.00000000    1600.00000000    1600.00000000    1600.00000000    1600.00000000    1600.00000000    1600.00000000    1600.00000000    1600.00000000    1600.00000000    1600.00000000    1600.00000000    1600.00000000    1600.00000000    1600.00000000
      1600.00000000    1600.00000000    1600.00000000    1600.00000000    1600.00000000    1600.00000000    1600.00000000    1600.00000000    1600.00000000    1600.00000000    1600.00000000    1600.00000000    1600.00000000    1600.00000000    1600.00000000    1600.00000000    1600.00000000    1600.00000000    1600.00000000    1600.00000000
      1600.00000000    1600.00000000    1600.00000000    1600.00000000    1600.00000000    1600.00000000     200.00000000    1600.00000000    1600.00000000    1600.00000000    1600.00000000    1600.00000000    1600.00000000    1600.00000000    1600.00000000    1600.00000000    1600.00000000    1600.00000000    1600.00000000    1600.00000000
      1600.00000000    1600.00000000    1600.00000000    1600.00000000    1600.00000000    1600.00000000    1600.00000000    1600.00000000    1600.00000000    1600.00000000    1600.00000000    1600.00000000    1600.00000000    1600.00000000    1600.00000000    1600.00000000    1600.00000000    1600.00000000    1600.00000000    1600.00000000
      1600.00000000    1600.00000000    1600.00000000    1600.00000000    1600.00000000    1600.00000000    1600.00000000    1600.00000000    1600.00000000    1600.00000000    1600.00000000    1600.00000000    1600.00000000      20.00000000    1600.00000000    1600.00000000    1600.00000000    1600.00000000    1600.00000000    1600.00000000
      1600.00000000    1600.00000000    1600.00000000    1600.00000000    1600.00000000    1600.00000000    1600.00000000    1600.00000000    1600.00000000    1600.00000000    1600.00000000    1600.00000000    1600.00000000    1600.00000000    1600.00000000    1600.00000000    1600.00000000    1600.00000000    1600.00000000    1600.00000000
      1600.00000000    1600.00000000    1600.00000000    1600.00000000    1600.00000000    1600.00000000    1600.00000000    1600.00000000    1600.00000000    1600.00000000    1600.00000000    1600.00000000    1600.00000000    1600.00000000    1600.00000000    1600.00000000    1600.00000000    1600.00000000    1600.00000000    1600.00000000
      1600.00000000    1600.00000000    1600.00000000    1600.00000000    1600.00000000    1600.00000000    1600.00000000    1600.00000000    1600.00000000    1600.00000000    1600.00000000    1600.00000000    1600.00000000    1600.00000000    1600.00000000    1600.00000000    1600.00000000    1600.00000000    1600.00000000    1600.00000000
      1600.00000000    1600.00000000    1600.00000000    1600.00000000    1600.00000000    1600.00000000    1600.00000000    1600.00000000    1600.00000000    1600.00000000    1600.00000000    1600.00000000    1600.00000000    1600.00000000    1600.00000000    1600.00000000    1600.00000000    1600.00000000    1600.00000000    1600.00000000
      1600.00000000    1600.00000000    1600.00000000    1600.00000000    1600.00000000    1600.00000000    1600.00000000    1600.00000000    1600.00000000    1600.00000000    1600.00000000    1600.00000000    1600.00000000    1600.00000000    1600.00000000    1600.00000000    1600.00000000    1600.00000000    1600.00000000    1600.00000000
      1600.00000000    1600.00000000    1600.00000000    1600.00000000    1600.00000000    1600.00000000    1600.00000000    1600.00000000    1600.00000000    1600.00000000    1600.00000000    1600.00000000    1600.00000000    1600.00000000    1600.00000000    1600.00000000    1600.00000000    1600.00000000    1600.00000000    1600.00000000
      1600.00000000    1600.00000000    1600.00000000    1600.00000000    1600.00000000    1600.00000000    1600.00000000    1600.00000000    1600.00000000    1600.00000000    1600.00000000    1600.00000000    1600.00000000      30.00000000    1600.00000000    1600.00000000    1600.00000000    1600.00000000    1600.00000000    1600.00000000
      1600.00000000    1600.00000000    1600.00000000    1600.00000000    1600.00000000    1600.00000000    1600.00000000    1600.00000000    1600.00000000    1600.00000000    1600.00000000    1600.00000000    1600.00000000    1600.00000000    1600.00000000    1600.00000000    1600.00000000    1600.00000000    1600.00000000    1600.00000000
      1600.00000000    1600.00000000    1600.00000000    1600.00000000    1600.00000000    1600.00000000    1600.00000000    1600.00000000    1600.00000000    1600.00000000    1600.00000000    1600.00000000    1600.00000000    1600.00000000    1600.00000000    1600.00000000    1600.00000000    1600.00000000    1600.00000000       0.00000000
        35.00000000    1600.00000000    1600.00000000    1600.00000000    1600.00000000    1600.00000000    1600.00000000    1600.00000000    1600.00000000    1600.00000000    1600.00000000    1600.00000000    1600.00000000    1600.00000000    1600.00000000    1600.00000000    1600.00000000    1600.00000000    1600.00000000    1600.00000000
      1600.00000000    1600.00000000    1600.00000000    1600.00000000    1600.00000000    1600.00000000    1600.00000000    1600.00000000    1600.00000000    1600.00000000    1600.00000000    1600.00000000    1600.00000000    1600.00000000    1600.00000000    1600.00000000    1600.00000000    1600.00000000    1600.00000000    1600.00000000
      1600.00000000    1600.00000000    1600.00000000    1600.00000000    1600.00000000    1600.00000000       0.00000000      25.00000000    1600.00000000    1600.00000000    1600.00000000    1600.00000000    1600.00000000    1600.00000000    1600.00000000    1600.00000000    1600.00000000    1600.00000000    1600.00000000    1600.00000000
      1600.00000000    1600.00000000    1600.00000000    1600.00000000    1600.00000000    1600.00000000    1600.00000000    1600.00000000    1600.00000000    1600.00000000    1600.00000000    1600.00000000    1600.00000000    1600.00000000    1600.00000000    1600.00000000    1600.00000000    1600.00000000    1600.00000000    1600.00000000
      1600.00000000    1600.00000000    1600.00000000    1600.00000000    1600.00000000    1600.00000000    1600.00000000    1600.00000000    1600.00000000    1600.00000000    1600.00000000    1600.00000000    1600.00000000      75.00000000      36.00000000    1600.00000000    1600.00000000    1600.00000000    1600.00000000    1600.00000000
      1600.00000000    1600.00000000    1600.00000000    1600.00000000    1600.00000000    1600.00000000    1600.00000000    1600.00000000    1600.00000000    1600.00000000    1600.00000000    1600.00000000    1600.00000000    1600.00000000    1600.00000000    1600.00000000    1600.00000000    1600.00000000    1600.00000000    1600.00000000
      1600.00000000    1600.00000000    1600.00000000    1600.00000000    1600.00000000    1600.00000000    1600.00000000    1600.00000000    1600.00000000    1600.00000000    1600.00000000    1600.00000000    1600.00000000    1600.00000000    1600.00000000    1600.00000000    1600.00000000    1600.00000000    1600.00000000    1600.00000000
        20.00000000      35.00000000    1600.00000000    1600.00000000    1600.00000000    1600.00000000    1600.00000000    1600.00000000    1600.00000000    1600.00000000    1600.00000000    1600.00000000    1600.00000000    1600.00000000    1600.00000000    1600.00000000    1600.00000000    1600.00000000    1600.00000000    1600.00000000
      1600.00000000    1600.00000000    1600.00000000    1600.00000000    1600.00000000    1600.00000000    1600.00000000    1600.00000000    1600.00000000    1600.00000000    1600.00000000    1600.00000000    1600.00000000    1600.00000000    1600.00000000    1600.00000000    1600.00000000    1600.00000000    1600.00000000    1600.00000000
      1600.00000000    1600.00000000    1600.00000000    1600.00000000    1600.00000000    1600.00000000    1600.00000000      10.00000000      36.00000000    1600.00000000    1600.00000000    1600.00000000    1600.00000000    1600.00000000    1600.00000000    1600.00000000    1600.00000000    1600.00000000    1600.00000000    1600.00000000
      1600.00000000    1600.00000000    1600.00000000    1600.00000000    1600.00000000    1600.00000000    1600.00000000    1600.00000000    1600.00000000    1600.00000000    1600.00000000    1600.00000000    1600.00000000    1600.00000000    1600.00000000    1600.00000000    1600.00000000    1600.00000000    1600.00000000    1600.00000000
      1600.00000000    1600.00000000    1600.00000000    1600.00000000    1600.00000000    1600.00000000    1600.00000000    1600.00000000    1600.00000000    1600.00000000    1600.00000000    1600.00000000    1600.00000000    1600.00000000      50.00000000      36.00000000    1600.00000000    1600.00000000    1600.00000000    1600.00000000
      1600.00000000    1600.00000000    1600.00000000    1600.00000000    1600.00000000    1600.00000000    1600.00000000    1600.00000000    1600.00000000    1600.00000000    1600.00000000    1600.00000000    1600.00000000    1600.00000000    1600.00000000    1600.00000000    1600.00000000    1600.00000000    1600.00000000    1600.00000000
      1600.00000000    1600.00000000    1600.00000000    1600.00000000    1600.00000000    1600.00000000    1600.00000000    1600.00000000    1600.00000000    1600.00000000    1600.00000000    1600.00000000    1600.00000000    1600.00000000    1600.00000000    1600.00000000    1600.00000000    1600.00000000    1600.00000000    1600.00000000
      1600.00000000      50.00000000      36.00000000      36.00000000    1600.00000000    1600.00000000    1600.00000000    1600.00000000    1600.00000000    1600.00000000    1600.00000000    1600.00000000    1600.00000000    1600.00000000    1600.00000000    1600.00000000    1600.00000000    1600.00000000    1600.00000000    1600.00000000
      1600.00000000    1600.00000000    1600.00000000    1600.00000000    1600.00000000    1600.00000000    1600.00000000    1600.00000000    1600.00000000    1600.00000000    1600.00000000    1600.00000000    1600.00000000    1600.00000000    1600.00000000    1600.00000000    1600.00000000    1600.00000000    1600.00000000    1600.00000000
      1600.00000000    1600.00000000    1600.00000000    1600.00000000    1600.00000000    1600.00000000    1600.00000000    1600.00000000      50.00000000      36.00000000      36.00000000    1600.00000000    1600.00000000    1600.00000000    1600.00000000    1600.00000000    1600.00000000    1600.00000000    1600.00000000    1600.00000000
      1600.00000000    1600.00000000    1600.00000000    1600.00000000    1600.00000000    1600.00000000    1600.00000000    1600.00000000    1600.00000000    1600.00000000    1600.00000000    1600.00000000    1600.00000000    1600.00000000    1600.00000000    1600.00000000    1600.00000000    1600.00000000    1600.00000000    1600.00000000
      1600.00000000    1600.00000000    1600.00000000    1600.00000000    1600.00000000    1600.00000000    1600.00000000    1600.00000000    1600.00000000    1600.00000000    1600.00000000    1600.00000000    1600.00000000    1600.00000000    1600.00000000      50.00000000      36.00000000      36.00000000      36.00000000    1600.00000000
      1600.00000000    1600.00000000    1600.00000000    1600.00000000    1600.00000000    1600.00000000    1600.00000000    1600.00000000    1600.00000000    1600.00000000    1600.00000000    1600.00000000    1600.00000000    1600.00000000    1600.00000000    1600.00000000    1600.00000000    1600.00000000    1600.00000000    1600.00000000
      1600.00000000    1600.00000000    1600.00000000    1600.00000000    1600.00000000    1600.00000000    1600.00000000    1600.00000000    1600.00000000    1600.00000000    1600.00000000    1600.00000000    1600.00000000    1600.00000000    1600.00000000    1600.00000000    1600.00000000    1600.00000000    1600.00000000    1600.00000000
      1600.00000000    1600.00000000     -50.00000000      36.00000000      36.00000000      36.00000000      36.00000000    1600.00000000    1600.00000000    1600.00000000    1600.00000000    1600.00000000    1600.00000000    1600.00000000    1600.00000000    1600.00000000    1600.00000000    1600.00000000    1600.00000000    1600.00000000
      1600.00000000    1600.00000000    1600.00000000    1600.00000000    1600.00000000    1600.00000000    1600.00000000    1600.00000000    1600.00000000    1600.00000000    1600.00000000    1600.00000000    1600.00000000    1600.00000000    1600.00000000    1600.00000000    1600.00000000    1600.00000000    1600.00000000    1600.00000000
      1600.00000000    1600.00000000    1600.00000000    1600.00000000    1600.00000000    1600.00000000    1600.00000000    1600.00000000       0.00000000     -50.00000000      36.00000000      36.00000000      36.00000000      36.00000000    1600.00000000    1600.00000000    1600.00000000    1600.00000000    1600.00000000    1600.00000000
      1600.00000000    1600.00000000    1600.00000000    1600.00000000    1600.00000000    1600.00000000    1600.00000000    1600.00000000    1600.00000000    1600.00000000    1600.00000000    1600.00000000    1600.00000000    1600.00000000    1600.00000000    1600.00000000    1600.00000000    1600.00000000    1600.00000000    1600.00000000
      1600.00000000    1600.00000000    1600.00000000    1600.00000000    1600.00000000    1600.00000000    1600.00000000    1600.00000000    1600.00000000    1600.00000000    1600.00000000    1600.00000000    1600.00000000    1600.00000000      50.00000000    1600.00000000    1600.00000000    1600.00000000    1600.00000000    1600.00000000
      1600.00000000    1600.00000000    1600.00000000    1600.00000000    1600.00000000    1600.00000000    1600.00000000    1600.00000000    1600.00000000    1600.00000000    1600.00000000    1600.00000000    1600.00000000    1600.00000000    1600.00000000    1600.00000000    1600.00000000    1600.00000000    1600.00000000    1600.00000000
      1600.00000000    1600.00000000    1600.00000000    1600.00000000    1600.00000000    1600.00000000    1600.00000000    1600.00000000    1600.00000000    1600.00000000    1600.00000000    1600.00000000    1600.00000000    1600.00000000    1600.00000000    1600.00000000    1600.00000000    1600.00000000    1600.00000000    1600.00000000
      1600.00000000      30.00000000    1600.00000000    1600.00000000    1600.00000000    1600.00000000    1600.00000000    1600.00000000    1600.00000000    1600.00000000    1600.00000000    1600.00000000    1600.00000000    1600.00000000    1600.00000000    1600.00000000    1600.00000000    1600.00000000    1600.00000000    1600.00000000
      1600.00000000    1600.00000000    1600.00000000    1600.00000000    1600.00000000    1600.00000000    1600.00000000    1600.00000000    1600.00000000    1600.00000000    1600.00000000    1600.00000000    1600.00000000    1600.00000000    1600.00000000    1600.00000000    1600.00000000    1600.00000000    1600.00000000    1600.00000000
      1600.00000000    1600.00000000    1600.00000000    1600.00000000    1600.00000000    1600.00000000    1600.00000000      25.00000000     -50.00000000    1600.00000000    1600.00000000    1600.00000000    1600.00000000    1600.00000000    1600.00000000    1600.00000000    1600.00000000    1600.00000000    1600.00000000    1600.00000000
      1600.00000000    1600.00000000    1600.00000000    1600.00000000    1600.00000000    1600.00000000    1600.00000000    1600.00000000    1600.00000000    1600.00000000    1600.00000000    1600.00000000    1600.00000000    1600.00000000    1600.00000000    1600.00000000    1600.00000000    1600.00000000    1600.00000000    1600.00000000
      1600.00000000    1600.00000000    1600.00000000    1600.00000000    1600.00000000    1600.00000000    1600.00000000    1600.00000000    1600.00000000    1600.00000000    1600.00000000    1600.00000000    1600.00000000     200.00000000      50.00000000     -50.00000000    1600.00000000    1600.00000000    1600.00000000    1600.00000000
      1600.00000000    1600.00000000    1600.00000000    1600.00000000    1600.00000000    1600.00000000    1600.00000000    1600.00000000    1600.00000000    1600.00000000    1600.00000000    1600.00000000    1600.00000000    1600.00000000    1600.00000000    1600.00000000    1600.00000000    1600.00000000    1600.00000000    1600.00000000
      1600.00000000    1600.00000000    1600.00000000    1600.00000000    1600.00000000    1600.00000000    1600.00000000    1600.00000000    1600.00000000    1600.00000000    1600.00000000    1600.00000000    1600.00000000    1600.00000000    1600.00000000    1600.00000000    1600.00000000    1600.00000000     400.00000000     300.00000000
       200.00000000     150.00000000     100.00000000      30.00000000    1600.00000000    1600.00000000    1600.00000000    1600.00000000    1600.00000000    1600.00000000    1600.00000000    1600.00000000    1600.00000000    1600.00000000    1600.00000000    1600.00000000    1600.00000000    1600.00000000    1600.00000000    1600.00000000
      1600.00000000    1600.00000000    1600.00000000    1600.00000000    1600.00000000    1600.00000000    1600.00000000    1600.00000000    1600.00000000    1600.00000000    1600.00000000    1600.00000000    1600.00000000    1600.00000000    1600.00000000    1600.00000000    1600.00000000    1600.00000000    1600.00000000    1600.00000000