# File generated by Flopy version 3.3.4 on 08/27/2022 at 17:07:14.
BEGIN options
  READASARRAYS
  SAVE_FLOWS
END options

BEGIN period  1
  recharge
    INTERNAL  FACTOR  1.0
    4.07156000E-04  4.07384300E-04  4.07959100E-04  4.09864400E-04  4.11347600E-04  4.12256300E-04  4.15515400E-04  4.18629900E-04  4.22258300E-04  4.25858300E-04  4.30245800E-04  4.35558900E-04  4.40531900E-04  4.40647900E-04  4.34632200E-04  4.28731400E-04  4.23601900E-04  4.20923900E-04  4.17825700E-04  4.14495200E-04
    4.10306800E-04  4.08379000E-04  4.06124700E-04  4.08850800E-04  4.13444600E-04  4.20586300E-04  4.19896100E-04  4.04399800E-04  3.84738400E-04  3.66467800E-04  3.52227900E-04  2.68444700E-04  2.54417800E-04  2.42722500E-04  2.35569700E-04  2.26300900E-04  2.20868400E-04  1.62363400E-04  1.59859700E-04  1.56449700E-04
    1.50997000E-04  1.48040600E-04  1.44437600E-04  1.37481800E-04  1.34266500E-04  1.28980000E-04  7.73752200E-05  4.04839900E-04  4.05696200E-04  4.05965200E-04  4.06847800E-04  4.08515600E-04  4.09727800E-04  4.12954300E-04  4.17786600E-04  4.21934800E-04  4.26140400E-04  4.30687900E-04  4.35591000E-04  4.40332100E-04
    4.40296600E-04  4.34704000E-04  4.28102900E-04  4.23270500E-04  4.19839600E-04  4.15602300E-04  4.11975000E-04  4.09609700E-04  4.05802200E-04  4.05195000E-04  4.03934200E-04  4.05591200E-04  4.10467100E-04  4.07490200E-04  3.94280100E-04  3.76804100E-04  3.62757600E-04  3.46482800E-04  2.64285800E-04  2.50662800E-04
    2.40265900E-04  2.32396800E-04  2.26490300E-04  2.22664000E-04  1.63804400E-04  1.60769000E-04  1.57905900E-04  1.51723000E-04  1.47463000E-04  1.44014300E-04  1.40078200E-04  1.33598800E-04  1.27900500E-04  1.23642800E-04  4.04025400E-04  4.03150500E-04  4.03020000E-04  4.03515600E-04  4.04769100E-04  4.06561000E-04
    4.10472000E-04  4.16231200E-04  4.20941800E-04  4.26309900E-04  4.31071200E-04  4.34934600E-04  4.36214600E-04  4.35490200E-04  4.31245300E-04  4.26671100E-04  4.21737100E-04  4.18795400E-04  4.14344800E-04  4.10575900E-04  4.07729200E-04  4.05453500E-04  4.01350300E-04  3.98161500E-04  3.97454900E-04  3.97947200E-04
    3.92857200E-04  3.83561500E-04  3.70077100E-04  3.56228500E-04  2.73158000E-04  2.60506600E-04  2.46220600E-04  2.34929800E-04  2.27987800E-04  2.24274500E-04  2.23145600E-04  1.95565500E-04  1.29237400E-04  1.26299000E-04  1.51884100E-04  1.47075200E-04  1.42211200E-04  1.38155300E-04  1.33693900E-04  1.23359100E-04
    8.08858800E-05  4.01512100E-04  4.00266400E-04  3.99171600E-04  3.98803800E-04  3.99440200E-04  4.01899300E-04  4.06315400E-04  4.13323200E-04  4.19498500E-04  4.26152300E-04  4.32023400E-04  4.37821000E-04  4.38003500E-04  4.33631200E-04  4.28957300E-04  4.24211200E-04  4.20237800E-04  4.17508000E-04  4.13344800E-04
    4.09001900E-04  4.05819100E-04  4.02792500E-04  3.97366700E-04  3.93368000E-04  3.91904500E-04  3.85473100E-04  3.80904400E-04  3.75322400E-04  3.62484600E-04  3.51288500E-04  2.70311100E-04  2.57905900E-04  2.42959000E-04  2.30564400E-04  2.23079600E-04  2.22249000E-04  1.97901000E-04  1.96245500E-04  1.29643900E-04
    1.25761300E-04  1.50537100E-04  1.45406200E-04  1.39688200E-04  1.33901100E-04  1.27522800E-04  8.11265700E-05  7.84237300E-05  3.98740400E-04  3.96741700E-04  3.94662900E-04  3.92426200E-04  3.91736000E-04  3.93716000E-04  4.00058800E-04  4.08070600E-04  4.16393300E-04  4.24178300E-04  4.30502000E-04  4.36587900E-04
    4.36615600E-04  4.31694400E-04  4.27500000E-04  4.22971800E-04  4.19170500E-04  4.16334900E-04  4.11622700E-04  4.07226300E-04  4.02516800E-04  3.97283400E-04  3.93039900E-04  3.89981100E-04  3.84508500E-04  3.79536400E-04  3.73767700E-04  3.67782400E-04  3.57211100E-04  3.47850900E-04  2.69169400E-04  2.56671600E-04
    2.42798900E-04  2.30563900E-04  2.23100700E-04  2.22283100E-04  1.97976000E-04  1.95510300E-04  1.29153400E-04  1.24651600E-04  1.17912700E-04  1.41346700E-04  1.35324400E-04  1.27012400E-04  8.13172700E-05  7.73877600E-05  7.60484700E-05  3.94506700E-04  3.93773600E-04  3.90402900E-04  3.86509500E-04  3.83431900E-04
    3.85223400E-04  3.92420200E-04  4.03159500E-04  4.12907100E-04  4.21191400E-04  4.26505700E-04  4.27750400E-04  4.27884300E-04  4.27581000E-04  4.24859900E-04  4.21770100E-04  4.16417500E-04  4.14367000E-04  4.10348400E-04  4.04977600E-04  3.98914800E-04  3.94068700E-04  3.90126500E-04  3.86181900E-04  3.79828300E-04
    3.76549500E-04  3.69259600E-04  3.65182000E-04  3.57025500E-04  3.49115800E-04  2.70219400E-04  2.59941300E-04  2.46992300E-04  2.36251500E-04  2.29074900E-04  2.01193700E-04  1.99769300E-04  1.96589900E-04  1.27922100E-04  1.23360700E-04  1.15686900E-04  1.09281600E-04  1.27180600E-04  8.06171100E-05  7.68163000E-05
    7.29145500E-05  7.16881000E-05  3.91116600E-04  3.90149000E-04  3.87236800E-04  3.82005700E-04  3.77238100E-04  3.77586100E-04  3.86141400E-04  3.98097200E-04  4.09547500E-04  4.17567400E-04  4.23352600E-04  4.26155200E-04  4.26237500E-04  4.24618600E-04  4.22121300E-04  4.18515700E-04  4.15641400E-04  4.12440800E-04
    4.05566300E-04  4.01130000E-04  3.96438800E-04  3.91675300E-04  3.87415600E-04  3.80577500E-04  3.78354200E-04  3.73551200E-04  3.68434200E-04  3.66262000E-04  3.59552000E-04  2.80194700E-04  2.80190900E-04  2.71580500E-04  2.60653400E-04  2.17860900E-04  2.12280400E-04  2.06214100E-04  2.01765900E-04  1.99002300E-04
    1.27830100E-04  1.20755000E-04  1.12796400E-04  1.04351100E-04  8.05036500E-05  7.53853500E-05  7.14358000E-05  6.76281300E-05  6.66111400E-05  3.88041800E-04  3.86065700E-04  3.84518700E-04  3.80817200E-04  3.76864800E-04  3.77448700E-04  3.85304700E-04  3.96564300E-04  4.06178500E-04  4.13399000E-04  4.18990400E-04
    4.21486900E-04  4.22184600E-04  4.20840800E-04  4.18019900E-04  4.15769700E-04  4.13248200E-04  4.08192700E-04  4.02657200E-04  3.98915400E-04  3.95481200E-04  3.91172200E-04  3.86535100E-04  3.81444400E-04  3.76095500E-04  3.72211400E-04  3.69539700E-04  3.68872900E-04  3.62729200E-04  2.82536500E-04  2.75639000E-04
    2.77158600E-04  2.69305900E-04  2.62609100E-04  2.20186500E-04  2.11425000E-04  2.04074600E-04  1.99054500E-04  1.28340000E-04  1.19254400E-04  1.08031600E-04  1.00016500E-04  7.61437600E-05  7.01494900E-05  6.50615600E-05  6.19275700E-05  6.12063200E-05  3.87753400E-04  3.86213400E-04  3.84409600E-04  3.83160700E-04
    3.82204100E-04  3.83178800E-04  3.88576600E-04  3.96033900E-04  4.02580000E-04  4.08308600E-04  4.13151200E-04  4.15575700E-04  4.16263300E-04  4.15783100E-04  4.14619800E-04  4.13187400E-04  4.09794700E-04  4.06855600E-04  4.01978800E-04  3.97246800E-04  3.93277500E-04  3.88533400E-04  3.82196000E-04  3.77848400E-04
    3.74922400E-04  3.71007100E-04  3.69448100E-04  3.68838300E-04  2.89104200E-04  2.82702800E-04  2.78212600E-04  2.75617800E-04  2.79112700E-04  2.71651200E-04  2.62168700E-04  2.16302600E-04  2.06334800E-04  1.98926100E-04  1.26939400E-04  1.14850800E-04  1.05656700E-04  3.63947100E-05  3.29682500E-05  2.98501900E-05
    5.97962900E-05  5.64181400E-05  5.60263900E-05  3.87686900E-04  3.86668500E-04  3.85709500E-04  3.86421300E-04  3.86834100E-04  3.88124300E-04  3.91023000E-04  3.95073100E-04  3.98956900E-04  4.04153700E-04  4.07943500E-04  4.11251700E-04  4.12562500E-04  4.12435200E-04  4.11911800E-04  4.09442900E-04  4.07851900E-04
    4.02757800E-04  4.00543300E-04  3.99406000E-04  3.91154000E-04  3.85314300E-04  3.81517700E-04  3.77425100E-04  3.75073000E-04  3.71654300E-04  3.68593500E-04  2.92335200E-04  2.86474000E-04  2.82476400E-04  2.81732800E-04  2.83253200E-04  2.80800700E-04  2.73335900E-04  2.69898200E-04  2.21158200E-04  2.08861800E-04
    1.98973400E-04  1.24909500E-04  1.12952900E-04  1.01760900E-04  3.56048500E-05  3.12386500E-05  2.84386900E-05  2.61283000E-05  2.63917900E-05  2.63214200E-05  3.87599300E-04  3.86991200E-04  3.88380000E-04  3.88127900E-04  3.87630700E-04  3.88914300E-04  3.90315300E-04  3.91286700E-04  3.93269500E-04  3.98978100E-04
    4.04941800E-04  4.09071500E-04  4.11957100E-04  4.12063300E-04  4.10093100E-04  4.08040400E-04  4.04575000E-04  4.01461800E-04  3.98732200E-04  3.97324200E-04  3.91341900E-04  3.83664300E-04  3.79656500E-04  3.76067700E-04  3.73647100E-04  3.71583400E-04  3.64950900E-04  2.88170900E-04  2.83134600E-04  2.82042700E-04
    2.84484300E-04  2.88441700E-04  2.88062000E-04  2.79832700E-04  2.75048300E-04  2.58856600E-04  2.08665100E-04  1.97390600E-04  1.23896800E-04  1.13802400E-04  9.97787900E-05  3.42250000E-05  3.05592900E-05  2.76237200E-05  2.58163100E-05  2.64881100E-05  2.63454100E-05  3.85015700E-04  3.88412000E-04  3.87997800E-04
    3.89637800E-04  3.88858800E-04  3.88190000E-04  3.85955100E-04  3.84441600E-04  3.85544700E-04  3.92205400E-04  4.00468400E-04  4.07508500E-04  4.11464600E-04  4.11511900E-04  4.09499500E-04  4.05526000E-04  4.03196100E-04  4.00269300E-04  3.97785600E-04  3.93578700E-04  3.91312400E-04  3.85434600E-04  3.80766900E-04
    3.78285300E-04  3.72860600E-04  3.70009000E-04  2.89007700E-04  2.85410500E-04  2.80068300E-04  2.80876800E-04  2.84146100E-04  2.88421600E-04  2.88054500E-04  2.80220100E-04  2.75290100E-04  2.59447200E-04  2.07717800E-04  1.95662100E-04  1.23254300E-04  1.12985800E-04  9.88917700E-05  3.39591000E-05  2.99829200E-05
    2.71647200E-05  2.55637800E-05  5.50971500E-05  5.50983100E-05  3.86893100E-04  3.87673800E-04  3.89741200E-04  3.89397100E-04  3.87433100E-04  3.86516100E-04  3.82823700E-04  3.78964500E-04  3.79283600E-04  3.86510800E-04  3.96078100E-04  4.03737100E-04  4.08054000E-04  4.08239800E-04  4.05634800E-04  4.04342300E-04
    4.02172900E-04  3.99864400E-04  3.95270400E-04  3.94204700E-04  3.91087000E-04  3.86295300E-04  3.84052600E-04  3.79467100E-04  3.75868700E-04  2.96500800E-04  2.89443200E-04  2.84367500E-04  2.79231200E-04  2.78968600E-04  2.80463100E-04  2.83407100E-04  2.81817600E-04  2.75124200E-04  2.72647400E-04  2.21482100E-04
    2.06486000E-04  1.31436200E-04  1.22001500E-04  1.12170000E-04  1.00870500E-04  3.42186300E-05  3.02696100E-05  2.74083600E-05  2.56757700E-05  5.54492100E-05  5.64657500E-05  3.85171700E-04  3.86381600E-04  3.87769500E-04  3.88414100E-04  3.87138400E-04  3.85599800E-04  3.82219700E-04  3.78805900E-04  3.78960900E-04
    3.85146100E-04  3.93225500E-04  3.98508500E-04  4.03827300E-04  4.04054400E-04  4.03941300E-04  4.01411500E-04  4.01494200E-04  3.99676300E-04  3.95805200E-04  3.94047400E-04  3.91877100E-04  3.87249200E-04  3.83494000E-04  3.79530900E-04  2.99757900E-04  2.96951000E-04  2.87606600E-04  2.83359500E-04  2.76745900E-04
    2.76542900E-04  2.76950600E-04  2.77564800E-04  2.74096600E-04  2.76773600E-04  2.65724500E-04  2.18100900E-04  2.07476800E-04  1.30551800E-04  1.21066100E-04  1.11961900E-04  1.02207900E-04  3.49062300E-05  3.14145900E-05  2.86987300E-05  2.71677200E-05  2.67148700E-05  5.89087500E-05  3.86142000E-04  3.85947100E-04
    3.88802400E-04  3.88918700E-04  3.85240600E-04  3.86017600E-04  3.83891600E-04  3.81827900E-04  3.82958900E-04  3.86714500E-04  3.91085800E-04  3.95639300E-04  3.99656700E-04  4.01075000E-04  4.02381800E-04  4.02429100E-04  4.01130300E-04  4.02493300E-04  3.97435300E-04  3.95333200E-04  3.91913600E-04  3.86995200E-04
    3.05541400E-04  3.01583800E-04  2.99500800E-04  2.93421100E-04  2.87487000E-04  2.82999300E-04  2.76531600E-04  2.75422300E-04  2.76085000E-04  2.73322900E-04  2.76030300E-04  2.68659600E-04  2.60415200E-04  2.13870600E-04  2.04767600E-04  1.28744100E-04  1.20882100E-04  1.12862900E-04  1.02877900E-04  3.66764100E-05
    3.30898700E-05  3.07205400E-05  2.93571400E-05  2.87899900E-05  6.20394300E-05  3.85537900E-04  3.87969500E-04  3.88151900E-04  3.85538300E-04  3.85878900E-04  3.86484800E-04  3.84710400E-04  3.84323400E-04  3.85766700E-04  3.87246500E-04  3.90013200E-04  3.92570200E-04  3.97381500E-04  4.00067500E-04  4.01457600E-04
    4.03328900E-04  4.04472300E-04  4.04027900E-04  4.01653800E-04  3.97121400E-04  3.92454600E-04  3.08725500E-04  3.05885000E-04  3.02376100E-04  2.95710400E-04  2.92005900E-04  2.86894800E-04  2.83387900E-04  2.78503700E-04  2.77878300E-04  2.74408500E-04  2.80098600E-04  2.69986500E-04  2.62908400E-04  2.21564800E-04
    2.10466000E-04  2.00213100E-04  1.27466000E-04  1.20494800E-04  1.11922500E-04  1.04860900E-04  3.77964100E-05  3.48290300E-05  3.27961700E-05  3.15967900E-05  3.08475800E-05  6.64412000E-05  3.87440400E-04  3.87149700E-04  3.85228700E-04  3.84784700E-04  3.84270200E-04  3.85388100E-04  3.84639900E-04  3.84315800E-04
    3.84339800E-04  3.86046700E-04  3.87766800E-04  3.90381800E-04  3.95539400E-04  3.98984600E-04  4.01881000E-04  4.04301100E-04  4.06223500E-04  4.06244900E-04  4.02917800E-04  3.98515400E-04  3.14047900E-04  3.09428800E-04  3.05884800E-04  3.00526700E-04  2.96622300E-04  2.91698500E-04  2.86480200E-04  2.83818800E-04
    2.81845200E-04  2.79369300E-04  2.76067900E-04  2.75560400E-04  2.67947300E-04  2.59810700E-04  2.17118100E-04  2.05278600E-04  1.97177900E-04  1.27244300E-04  1.17702600E-04  1.12011700E-04  1.06244200E-04  1.01274500E-04  3.66167000E-05  3.45637700E-05  3.35284000E-05  3.26755800E-05  6.80797100E-05  3.84755100E-04
    3.84480400E-04  3.84850600E-04  3.84293800E-04  3.81423700E-04  3.82624600E-04  3.82919000E-04  3.80198200E-04  3.80721500E-04  3.81951900E-04  3.84857800E-04  3.89016900E-04  3.92636900E-04  3.96783500E-04  4.01800400E-04  4.04698300E-04  4.06283400E-04  4.06121500E-04  4.03236300E-04  3.18019200E-04  3.15317200E-04
    3.10337200E-04  3.04941300E-04  3.01391200E-04  2.97487900E-04  2.92511100E-04  2.85937700E-04  2.83705100E-04  2.82808100E-04  2.80906100E-04  2.76066200E-04  2.77137200E-04  2.67214500E-04  2.59575100E-04  2.13967000E-04  2.01558500E-04  1.30699100E-04  1.23376200E-04  1.17563300E-04  1.11498700E-04  1.06927900E-04
    1.03272700E-04  3.77898400E-05  3.63065700E-05  3.50009900E-05  7.17863800E-05  7.03686500E-05  3.82831100E-04  3.82743000E-04  3.83831000E-04  3.80537100E-04  3.80032600E-04  3.80784000E-04  3.78112300E-04  3.77048000E-04  3.75794200E-04  3.76490500E-04  3.80181800E-04  3.85597600E-04  3.91147300E-04  3.95043600E-04
    4.00074400E-04  4.03130800E-04  4.04160600E-04  4.03419500E-04  3.20440000E-04  3.19201800E-04  3.15306600E-04  3.10018500E-04  3.06795400E-04  3.03501900E-04  3.00110400E-04  2.93478300E-04  2.87624500E-04  2.83796300E-04  2.83130100E-04  2.80826400E-04  2.75571000E-04  2.75838600E-04  2.65058500E-04  2.21551500E-04
    2.13431400E-04  2.00403600E-04  1.26290800E-04  1.20846800E-04  1.15416600E-04  1.11036000E-04  1.06395400E-04  1.04051400E-04  1.00378100E-04  3.73330400E-05  7.75161600E-05  7.43311100E-05  7.26394400E-05  3.81689300E-04  3.81603700E-04  3.79079300E-04  3.79498500E-04  3.78925800E-04  3.77837600E-04  3.76241700E-04
    3.74163000E-04  3.72267000E-04  3.72421000E-04  3.76730800E-04  3.83146900E-04  3.89558700E-04  3.95340500E-04  3.98261000E-04  4.01585500E-04  4.01789000E-04  3.20947300E-04  3.20263600E-04  3.19649100E-04  3.15343300E-04  3.11038300E-04  3.08723700E-04  3.06666900E-04  3.03387800E-04  2.98961600E-04  2.92460900E-04
    2.86964200E-04  2.83733900E-04  2.80760500E-04  2.75038200E-04  2.75003100E-04  2.64704000E-04  2.19806900E-04  2.09274600E-04  1.30759100E-04  1.23292100E-04  1.16308900E-04  1.10881800E-04  1.07123900E-04  1.04883000E-04  1.02524100E-04  1.25899800E-04  8.05452100E-05  7.86917800E-05  7.55524100E-05  7.37136600E-05
    3.81912800E-04  3.80801400E-04  3.81250300E-04  3.80663300E-04  3.78463700E-04  3.78819800E-04  3.76871400E-04  3.74458000E-04  3.72194800E-04  3.72294900E-04  3.76323800E-04  3.82508800E-04  3.88946200E-04  3.94901500E-04  3.97519100E-04  4.00022700E-04  3.21135000E-04  3.22350900E-04  3.22829200E-04  3.21116200E-04
    3.17588000E-04  3.13985300E-04  3.10851500E-04  3.09518800E-04  3.10005200E-04  3.07540400E-04  3.00884600E-04  2.92277800E-04  2.85948900E-04  2.80860100E-04  2.74530100E-04  2.74936900E-04  2.63284800E-04  2.18060100E-04  2.03038900E-04  1.27480200E-04  1.20471900E-04  1.12554000E-04  1.06051600E-04  1.02552300E-04
    1.01339700E-04  1.27118700E-04  8.20596700E-05  8.08502600E-05  7.91262900E-05  7.60490700E-05  7.41120200E-05  3.79814400E-04  3.79809200E-04  3.80326400E-04  3.77478400E-04  3.77218500E-04  3.78603300E-04  3.77246200E-04  3.75857000E-04  3.74406500E-04  3.75273600E-04  3.78417000E-04  3.83534400E-04  3.89324500E-04
    3.94627000E-04  3.96939700E-04  4.02003100E-04  3.23573300E-04  3.26951800E-04  3.27467600E-04  3.27375000E-04  3.21846600E-04  3.16797900E-04  3.12887800E-04  3.12398900E-04  3.15351800E-04  3.14791000E-04  3.06763200E-04  2.97228000E-04  2.88888100E-04  2.81899200E-04  2.75372400E-04  2.74253600E-04  2.61953300E-04
    2.12239700E-04  2.00634100E-04  1.26089300E-04  1.17733400E-04  1.09914700E-04  1.03085100E-04  9.94700300E-05  9.92226600E-05  1.24394900E-04  1.23600900E-04  8.06698800E-05  7.89449800E-05  7.70277600E-05  7.38841300E-05  3.75237800E-04  3.78648900E-04  3.77791400E-04  3.77606300E-04  3.77498600E-04  3.79240300E-04
    3.78206800E-04  3.76304600E-04  3.77121800E-04  3.78657400E-04  3.81292500E-04  3.83826700E-04  3.88207900E-04  3.93180800E-04  3.97317300E-04  4.04324800E-04  3.29285500E-04  3.33916500E-04  3.38219900E-04  3.37206900E-04  3.30092500E-04  3.19844400E-04  3.14358200E-04  3.13288300E-04  3.15262200E-04  3.14741500E-04
    3.07277700E-04  2.99199000E-04  2.90750900E-04  2.83280700E-04  2.74706600E-04  2.72749100E-04  2.58800900E-04  2.14591700E-04  2.01636500E-04  1.26651300E-04  1.17972700E-04  1.09518900E-04  1.03185700E-04  9.94109400E-05  9.89965500E-05  1.24184900E-04  8.19239500E-05  8.08109100E-05  7.72491100E-05  7.51811300E-05
    7.20948000E-05  3.73549900E-04  3.72095600E-04  3.76572200E-04  3.76481000E-04  3.76595200E-04  3.78880400E-04  3.77061900E-04  3.76854300E-04  3.78596800E-04  3.80502500E-04  3.82690700E-04  3.84759000E-04  3.87179500E-04  3.92984100E-04  3.98074600E-04  4.07461600E-04  3.35047800E-04  3.45446100E-04  3.53247900E-04
    3.52534500E-04  3.40404200E-04  3.25771400E-04  3.16294000E-04  3.11760000E-04  3.10442100E-04  3.08274800E-04  3.04787800E-04  2.99593700E-04  2.92227200E-04  2.83998700E-04  2.74604900E-04  2.70815200E-04  2.57521600E-04  2.10998900E-04  2.01150300E-04  1.26309000E-04  1.18243900E-04  1.10639800E-04  1.04248500E-04
    1.00992300E-04  9.97590300E-05  1.23887700E-04  8.13135500E-05  7.97654400E-05  7.79020300E-05  7.38903600E-05  7.08063700E-05  3.69995400E-04  3.70211300E-04  3.71246500E-04  3.74947900E-04  3.75202900E-04  3.76037400E-04  3.76297800E-04  3.76672000E-04  3.77672900E-04  3.80396600E-04  3.80991300E-04  3.83508000E-04
    3.87545100E-04  3.90411200E-04  3.98933200E-04  4.08446500E-04  3.38804700E-04  3.53657300E-04  3.67126400E-04  3.66736800E-04  3.49837500E-04  3.30574800E-04  3.17471500E-04  3.10147200E-04  3.06996800E-04  3.05618300E-04  3.04711800E-04  3.00791200E-04  2.92818100E-04  2.83606600E-04  2.80303900E-04  2.69519600E-04
    2.20851000E-04  2.10320500E-04  1.98903200E-04  1.26197400E-04  1.18852800E-04  1.10877400E-04  1.04620900E-04  1.01866600E-04  1.00046000E-04  8.18708400E-05  7.96656500E-05  7.78235700E-05  7.58803100E-05  7.28783100E-05  6.88802200E-05  3.71853600E-04  3.71923900E-04  3.72767500E-04  3.72676500E-04  3.74019100E-04
    3.73007300E-04  3.73363200E-04  3.73758000E-04  3.75041400E-04  3.74182200E-04  3.75297500E-04  3.76992600E-04  3.80229600E-04  3.85175300E-04  3.91971500E-04  4.05066300E-04  3.36212400E-04  3.52997500E-04  3.67105400E-04  3.66828800E-04  3.50145900E-04  3.30694900E-04  3.16913600E-04  3.09385400E-04  3.05851300E-04
    3.05231200E-04  3.04578700E-04  2.99459200E-04  2.91300500E-04  2.80132400E-04  2.77127600E-04  2.64793400E-04  2.18169000E-04  2.07192700E-04  1.96261700E-04  1.24839100E-04  1.14703100E-04  1.09625200E-04  1.04543800E-04  1.01354700E-04  3.77171300E-05  7.99395400E-05  7.71029700E-05  7.49171800E-05  7.22474300E-05
    6.81037700E-05  6.55664000E-05  3.69589300E-04  3.69515900E-04  3.70257600E-04  3.70755600E-04  3.71017100E-04  3.72798300E-04  3.70744400E-04  3.70952600E-04  3.70989100E-04  3.71884700E-04  3.70354800E-04  3.70695600E-04  3.72464300E-04  3.76367300E-04  3.81599700E-04  3.95418900E-04  3.27087600E-04  3.42020000E-04
    3.51924400E-04  3.52256800E-04  3.40208800E-04  3.25916500E-04  3.15618400E-04  3.08755700E-04  3.05001100E-04  3.03184800E-04  3.01032200E-04  2.96117200E-04  2.86031700E-04  2.77604400E-04  2.73473400E-04  2.62610200E-04  2.16057200E-04  2.05315400E-04  1.31399200E-04  1.21994300E-04  1.16065900E-04  1.07667900E-04
    1.03033200E-04  9.91637600E-05  3.65370300E-05  3.49565000E-05  7.36857800E-05  7.14155300E-05  6.86653100E-05  6.47991000E-05  6.24760200E-05  3.66929000E-04  3.66630800E-04  3.67843700E-04  3.67537100E-04  3.67729000E-04  3.66488200E-04  3.69914300E-04  3.66372300E-04  3.67105800E-04  3.67016200E-04  3.65515000E-04
    3.61960900E-04  3.61030700E-04  3.62748900E-04  3.67278300E-04  3.02852500E-04  3.13997000E-04  3.25617200E-04  3.34492600E-04  3.35334600E-04  3.28712700E-04  3.20978100E-04  3.13705200E-04  3.08056600E-04  3.03040700E-04  3.00470100E-04  2.96259400E-04  2.89874900E-04  2.82182500E-04  2.78924100E-04  2.70951100E-04
    2.59175600E-04  2.13464100E-04  2.02961300E-04  1.27666200E-04  1.21054900E-04  1.13184500E-04  1.07046300E-04  1.00127600E-04  3.66382000E-05  3.48229500E-05  3.32922500E-05  6.95753700E-05  6.65065400E-05  6.47058400E-05  6.21328100E-05  5.88279200E-05  3.63852600E-04  3.63835800E-04  3.64134000E-04  3.63648700E-04
    3.63753600E-04  3.62572300E-04  3.61781000E-04  3.65124700E-04  3.62918900E-04  3.61746300E-04  3.58277300E-04  3.53071000E-04  3.46227100E-04  3.43753100E-04  2.77214100E-04  2.87746600E-04  3.01657400E-04  3.13308200E-04  3.20500500E-04  3.24952400E-04  3.22547800E-04  3.18571700E-04  3.13497300E-04  3.06904600E-04
    3.01890700E-04  2.98020100E-04  2.90329000E-04  2.84330800E-04  2.75413300E-04  2.76360000E-04  2.64590700E-04  2.22112900E-04  2.10528200E-04  1.96509300E-04  1.26127400E-04  1.18949400E-04  1.10678500E-04  1.03980600E-04  3.74767400E-05  3.47995800E-05  3.27291700E-05  3.11313100E-05  2.95980200E-05  6.25032000E-05
    6.06581900E-05  5.78887100E-05  2.72924800E-05  3.59364200E-04  3.59849400E-04  3.59735500E-04  3.58993000E-04  3.58997900E-04  3.57071700E-04  3.57621600E-04  3.57812100E-04  3.61269300E-04  3.56948900E-04  3.51613600E-04  3.42771200E-04  2.65314700E-04  2.64333200E-04  2.65982700E-04  2.79872000E-04  2.90588300E-04
    3.05234300E-04  3.14749300E-04  3.21776800E-04  3.23858200E-04  3.21867700E-04  3.16037300E-04  3.08768000E-04  3.01353300E-04  2.93360600E-04  2.86071700E-04  2.79612700E-04  2.78393400E-04  2.70399400E-04  2.62705200E-04  2.16677300E-04  2.09445000E-04  1.31114200E-04  1.23942300E-04  1.15177700E-04  1.07867000E-04
    1.00546400E-04  3.58196000E-05  3.31833000E-05  3.04706500E-05  2.86197800E-05  2.78468800E-05  2.71951400E-05  5.70015000E-05  2.66649400E-05  2.50369100E-05  3.55444500E-04  3.53834900E-04  3.54580400E-04  3.53434100E-04  3.52433000E-04  3.51931100E-04  3.52986100E-04  3.53816500E-04  3.54371300E-04  3.55653800E-04
    3.47265800E-04  2.68816300E-04  2.62817700E-04  2.17100300E-04  2.17578400E-04  2.68187500E-04  2.83259400E-04  3.01970600E-04  3.17422400E-04  3.28035600E-04  3.34472900E-04  3.32971700E-04  3.24810500E-04  3.13173800E-04  3.02567700E-04  2.90985300E-04  2.82267500E-04  2.75214800E-04  2.73361200E-04  2.65753400E-04
    2.57378700E-04  2.17458600E-04  2.00994800E-04  1.29486400E-04  1.20118200E-04  1.12749100E-04  1.05142800E-04  3.73552900E-05  3.42923200E-05  3.12987300E-05  2.82195700E-05  2.67203600E-05  2.63193200E-05  2.60722400E-05  2.70079700E-05  2.46653300E-05  2.27354100E-05  3.45193400E-04  3.49654100E-04  3.48130200E-04
    3.46898800E-04  3.46505000E-04  3.46508500E-04  3.48458700E-04  3.50574700E-04  3.52348300E-04  3.51438300E-04  3.46296100E-04  2.66525500E-04  2.61997200E-04  2.17034300E-04  2.17517100E-04  2.67989800E-04  2.83401100E-04  3.04212100E-04  3.23517300E-04  3.41963600E-04  3.54247700E-04  3.53639900E-04  3.38525700E-04
    3.18434600E-04  3.01784400E-04  2.86929000E-04  2.78531000E-04  2.77724400E-04  2.68600600E-04  2.61583100E-04  2.20557200E-04  2.10887000E-04  2.00484600E-04  1.25746900E-04  1.17615600E-04  1.10557700E-04  1.02839500E-04  3.63916700E-05  7.20615800E-05  6.42344500E-05  5.85185400E-05  5.55170100E-05  5.52543900E-05
    5.54466000E-05  2.62302900E-05  2.32464600E-05  2.10145400E-05  2.73189100E-04  2.70728500E-04  2.72964200E-04  2.70842100E-04  2.70811200E-04  2.72200400E-04  2.73712900E-04  3.46178500E-04  3.50033600E-04  3.51119800E-04  3.48580200E-04  2.73344400E-04  2.70917700E-04  2.63780300E-04  2.65453200E-04  2.78307400E-04
    2.89658200E-04  3.08303100E-04  3.28970900E-04  3.53220800E-04  3.74471300E-04  3.74261200E-04  3.48939600E-04  3.20790000E-04  2.97900500E-04  2.80842100E-04  2.76650900E-04  2.69498700E-04  2.61407500E-04  2.21416800E-04  2.11126600E-04  2.03308800E-04  1.29585900E-04  1.22225700E-04  1.15044100E-04  1.08460600E-04
    1.01113200E-04  3.58024200E-05  7.00266800E-05  6.34908500E-05  5.81853900E-05  5.54441900E-05  5.51781800E-05  5.48216900E-05  2.58129800E-05  2.30004900E-05  2.10059900E-05  2.73035100E-04  2.69777600E-04  2.66707800E-04  2.64991400E-04  2.62355800E-04  2.64118600E-04  2.67713900E-04  2.71782700E-04  3.45804000E-04
    3.49781400E-04  3.50684100E-04  3.48589700E-04  2.75144900E-04  2.80983600E-04  2.74613000E-04  2.83961700E-04  2.97067000E-04  3.11248600E-04  3.28690300E-04  3.52470900E-04  3.74068500E-04  3.73501800E-04  3.45933300E-04  3.12431200E-04  2.87091000E-04  2.76509600E-04  2.66320700E-04  2.61286300E-04  2.57314800E-04
    2.16453700E-04  2.10090100E-04  2.02494400E-04  1.29288500E-04  1.21250500E-04  1.14326300E-04  1.07627600E-04  1.00849100E-04  3.47631100E-05  6.97798800E-05  6.40553600E-05  5.95476100E-05  5.72128800E-05  5.61686200E-05  5.53090300E-05  2.60533400E-05  2.38947500E-05  2.23048100E-05  2.70982900E-04  2.66851100E-04
    2.62746000E-04  2.58502400E-04  2.56508500E-04  2.57155000E-04  2.61746300E-04  2.68866800E-04  3.43914300E-04  3.50698900E-04  3.54826400E-04  3.56885300E-04  2.86693500E-04  2.84996800E-04  2.90038200E-04  2.95232800E-04  3.03501800E-04  3.11421500E-04  3.22766900E-04  3.38095900E-04  3.49223100E-04  3.47039000E-04
    3.25742800E-04  2.96007300E-04  2.77337300E-04  2.60298000E-04  2.20607800E-04  2.21009900E-04  2.17469800E-04  2.13581300E-04  2.07467400E-04  1.99942000E-04  1.27725900E-04  1.19620000E-04  1.12847300E-04  1.05925300E-04  3.76122400E-05  3.52597500E-05  7.01467900E-05  6.51131600E-05  6.12174800E-05  5.90845700E-05
    5.72309000E-05  5.57801600E-05  2.68922400E-05  2.50610900E-05  2.38147300E-05  2.69700300E-04  2.65158500E-04  2.60419000E-04  2.55425800E-04  2.52036100E-04  2.52359200E-04  2.57758600E-04  2.66381800E-04  3.44447100E-04  3.51883400E-04  3.58556500E-04  3.63427900E-04  2.92734500E-04  2.97495900E-04  3.00599800E-04
    3.06049900E-04  3.08209400E-04  3.11586600E-04  3.15916900E-04  3.21630500E-04  3.23091600E-04  3.18776600E-04  3.03143800E-04  2.79957800E-04  2.63185000E-04  2.14486700E-04  2.13511000E-04  2.15879700E-04  2.14735800E-04  2.10721500E-04  2.04891200E-04  1.97340400E-04  1.26101400E-04  1.17916900E-04  1.11306700E-04
    1.03014800E-04  3.70883800E-05  3.48731400E-05  3.28715800E-05  6.57127100E-05  6.19911400E-05  5.99288800E-05  5.72912000E-05  5.59894800E-05  2.72522800E-05  2.60992700E-05  2.49242300E-05  2.68469000E-04  2.64283200E-04  2.59898600E-04  2.55200700E-04  2.51992000E-04  2.52301700E-04  2.57837900E-04  2.66971400E-04
    2.73541500E-04  3.51223700E-04  3.56891400E-04  3.63225300E-04  2.95834400E-04  3.02217600E-04  3.09512700E-04  3.14067400E-04  3.14746100E-04  3.12878300E-04  3.11018300E-04  3.11175100E-04  3.06755700E-04  3.00758800E-04  2.88905100E-04  2.79177300E-04  2.59564100E-04  2.13883200E-04  2.12739100E-04  2.14751700E-04
    2.12949400E-04  2.08555600E-04  2.02137400E-04  1.95302300E-04  1.24843900E-04  1.17538600E-04  1.09461900E-04  1.02998200E-04  3.71084200E-05  3.47916800E-05  3.23577400E-05  6.58454100E-05  6.12155100E-05  5.79558100E-05  5.56416300E-05  2.72538700E-05  2.67414200E-05  2.59198300E-05  2.56789400E-05  2.68716000E-04
    2.65782900E-04  2.62050700E-04  2.58089600E-04  2.56208900E-04  2.56964600E-04  2.61831900E-04  2.69581400E-04  3.47287000E-04  3.53554700E-04  3.61213900E-04  3.66115900E-04  2.98781000E-04  3.06033000E-04  3.14262800E-04  3.21747900E-04  3.21712900E-04  3.14566000E-04  3.09348300E-04  3.06677300E-04  2.99340700E-04
    2.92714100E-04  2.82439500E-04  2.76727900E-04  2.62662600E-04  2.18165700E-04  2.14854600E-04  2.13605500E-04  2.10609000E-04  2.05498100E-04  1.98921500E-04  1.29144500E-04  1.22210700E-04  1.13853600E-04  1.07588600E-04  1.01295600E-04  3.65171000E-05  3.43498000E-05  3.22027000E-05  2.96815000E-05  5.96198400E-05
    5.61360500E-05  2.68940500E-05  2.63863800E-05  2.60583500E-05  2.55452800E-05  2.55761800E-05  2.68252700E-04  2.65767100E-04  2.64141200E-04  2.63433600E-04  2.62090600E-04  2.63509300E-04  2.69029600E-04  3.42980500E-04  3.47147300E-04  3.54934900E-04  3.60086600E-04  3.66637000E-04  2.97790100E-04  3.04942200E-04
    3.13987000E-04  3.21613900E-04  3.21446800E-04  3.14295100E-04  3.08019900E-04  3.05801400E-04  2.99453100E-04  2.91518000E-04  2.80790900E-04  2.76028500E-04  2.63597600E-04  2.20071900E-04  2.12830200E-04  2.10767600E-04  2.05570300E-04  2.01251000E-04  1.31363900E-04  1.26700500E-04  1.19635500E-04  1.11528500E-04
    1.05472400E-04  9.93091100E-05  3.58742400E-05  3.35228100E-05  3.12710300E-05  2.85619800E-05  2.63405200E-05  2.69473800E-05  2.55444500E-05  2.50618700E-05  2.48839000E-05  2.47157800E-05  2.50244300E-05  2.70937600E-04  2.68624800E-04  2.70248600E-04  2.69017600E-04  2.68733500E-04  2.72177000E-04  3.43123900E-04