# File generated by Flopy version 3.3.4 on 08/27/2022 at 17:07:14.
BEGIN options
  SAVE_FLOWS
END options

BEGIN dimensions
  MAXBOUND  64
END dimensions

BEGIN period  1
  2 781     -15.00000000
  2 782     -60.00000000
  2 1254   -2373.00000000
  2 1301    -892.00000000
  2 1434     -96.00000000
  2 1542   -2085.00000000
  2 2055   -8000.00000000
  2 2057   -8000.00000000
  2 2061    -595.00000000
  2 2107   -4433.00000000
  2 2248   -2227.00000000
  2 2373   -1608.00000000
  2 2749   -3436.00000000
  2 2835     -44.00000000
  2 2836    -123.00000000
  2 2838    -851.00000000
  2 2982   -2743.00000000
  2 3122   -5617.00000000
  2 3169   -1484.00000000
  2 3304     -41.00000000
  2 3307     -93.00000000
  2 3351    -196.00000000
  2 3765    -124.00000000
  2 3767    -138.00000000
  2 3844  -10000.00000000
  2 3859     -99.00000000
  4 181   -5532.00000000
  4 418   -2679.00000000
  4 651   -4699.00000000
  4 792   -4658.00000000
  4 926    -893.00000000
  4 933   -3414.00000000
  4 957    -107.00000000
  4 979   -1132.00000000
  4 1007    -133.00000000
  4 1027   -3600.00000000
  4 1098    -121.00000000
  4 1120   -1921.00000000
  4 1215   -4258.00000000
  4 1243     -70.00000000
  4 1253   -3340.00000000
  4 1255    -491.00000000
  4 1336     -48.00000000
  4 1338     -35.00000000
  4 1380     -67.00000000
  4 1384     -88.00000000
  4 1448   -1896.00000000
  4 1488    -348.00000000
  4 1494   -3123.00000000
  4 1519    -217.00000000
  4 1541   -4562.00000000
  4 1613   -1092.00000000
  4 1659    -473.00000000
  4 1684   -3956.00000000
  4 1706   -7783.00000000
  4 1779   -3951.00000000
  4 2015   -3321.00000000
  4 2330   -5408.00000000
  4 2935   -7394.00000000
  4 3029   -9225.00000000
  4 3169   -5282.00000000
  4 3347     -33.00000000
  4 3440     -62.00000000
  4 4003    -839.00000000
END period  1

