# File generated by Flopy version 3.3.4 on 08/27/2022 at 17:07:14.
BEGIN options
  SAVE_FLOWS
END options

BEGIN dimensions
  MAXBOUND  8
END dimensions

BEGIN period  1
  2 1447     -30.00000000
  2 1780    -140.00000000
  2 1922    -150.00000000
  4 932     -10.00000000
  4 2628    -380.00000000
  4 2675    -380.00000000
  4 2722    -380.00000000
  4 3937    -350.00000000
END period  1

