# File generated by Flopy version 3.3.4 on 08/27/2022 at 17:07:14.
BEGIN griddata
  strt  LAYERED
    INTERNAL  FACTOR  1.0
         650.00000000     650.00000000     650.00000000     650.00000000     650.00000000     650.00000000     650.00000000     650.00000000     650.00000000     650.00000000     650.00000000     650.00000000     650.00000000     650.00000000     650.00000000     650.00000000     650.00000000     650.00000000     650.00000000     650.00000000
         650.00000000     650.00000000     650.00000000     650.00000000     650.00000000     650.00000000     650.00000000     650.00000000     650.00000000     650.00000000     650.00000000     650.00000000     650.00000000     650.00000000     650.00000000     650.00000000     650.00000000     650.00000000     650.00000000     650.00000000
         650.00000000     650.00000000     650.00000000     650.00000000     650.00000000     650.00000000     650.00000000     650.00000000     650.00000000     650.00000000     650.00000000     650.00000000     650.00000000     650.00000000     650.00000000     650.00000000     650.00000000     650.00000000     650.00000000     650.00000000
         650.00000000     650.00000000     650.00000000     650.00000000     650.00000000     650.00000000     650.00000000     650.00000000     650.00000000     650.00000000     650.00000000     650.00000000     650.00000000     650.00000000     650.00000000     650.00000000     650.00000000     650.00000000     650.00000000     650.00000000
         650.00000000     650.00000000     650.00000000     650.00000000     650.00000000     650.00000000     650.00000000     650.00000000     650.00000000     650.00000000     650.00000000     650.00000000     650.00000000     650.00000000     650.00000000     650.00000000     650.00000000     650.00000000     650.00000000     650.00000000
         650.00000000     650.00000000     650.00000000     650.00000000     650.00000000     650.00000000     650.00000000     650.00000000     650.00000000     650.00000000     650.00000000     650.00000000     650.00000000     650.00000000     650.00000000     650.00000000     650.00000000     650.00000000     650.00000000     650.00000000
         650.00000000     650.00000000     650.00000000     650.00000000     650.00000000     650.00000000     650.00000000     650.00000000     650.00000000     650.00000000     650.00000000     650.00000000     650.00000000     650.00000000     650.00000000     650.00000000     650.00000000     650.00000000     650.00000000     650.00000000
         650.00000000     650.00000000     650.00000000     650.00000000     650.00000000     650.00000000     650.00000000     650.00000000     650.00000000     650.00000000     650.00000000     650.00000000     650.00000000     650.00000000     650.00000000     650.00000000     650.00000000     650.00000000     650.00000000     650.00000000
         650.00000000     650.00000000     650.00000000     650.00000000     650.00000000     650.00000000     650.00000000     650.00000000     650.00000000     650.00000000     650.00000000     650.00000000     650.00000000     650.00000000     650.00000000     650.00000000     650.00000000     650.00000000     650.00000000     650.00000000
         650.00000000     650.00000000     650.00000000     650.00000000     650.00000000     650.00000000     650.00000000     650.00000000     650.00000000     650.00000000     650.00000000     650.00000000     650.00000000     650.00000000     650.00000000     650.00000000     650.00000000     650.00000000     650.00000000     650.00000000
         650.00000000     650.00000000     650.00000000     650.00000000     650.00000000     650.00000000     650.00000000     650.00000000     650.00000000     650.00000000     650.00000000     650.00000000     650.00000000     650.00000000     650.00000000     650.00000000     650.00000000     650.00000000     650.00000000     650.00000000
         650.00000000     650.00000000     650.00000000     650.00000000     650.00000000     650.00000000     650.00000000     650.00000000     650.00000000     650.00000000     650.00000000     650.00000000     650.00000000     650.00000000     650.00000000     650.00000000     650.00000000     650.00000000     650.00000000     650.00000000
         650.00000000     650.00000000     650.00000000     650.00000000     650.00000000     650.00000000     650.00000000     650.00000000     650.00000000     650.00000000     650.00000000     650.00000000     650.00000000     650.00000000     650.00000000     650.00000000     650.00000000     650.00000000     650.00000000     650.00000000
         650.00000000     650.00000000     650.00000000     650.00000000     650.00000000     650.00000000     650.00000000     650.00000000     650.00000000     650.00000000     650.00000000     650.00000000     650.00000000     650.00000000     650.00000000     650.00000000     650.00000000     650.00000000     650.00000000     650.00000000
         650.00000000     650.00000000     650.00000000     650.00000000     650.00000000     650.00000000     650.00000000     650.00000000     650.00000000     650.00000000     650.00000000     650.00000000     650.00000000     650.00000000     650.00000000     650.00000000     650.00000000     650.00000000     650.00000000     650.00000000
         650.00000000     650.00000000     650.00000000     650.00000000     650.00000000     650.00000000     650.00000000     650.00000000     650.00000000     650.00000000     650.00000000     650.00000000     650.00000000     650.00000000     650.00000000     650.00000000     650.00000000     650.00000000     650.00000000     650.00000000
         650.00000000     650.00000000     650.00000000     650.00000000     650.00000000     650.00000000     650.00000000     650.00000000     650.00000000     650.00000000     650.00000000     650.00000000     650.00000000     650.00000000     650.00000000     650.00000000     650.00000000     650.00000000     650.00000000     650.00000000
         650.00000000     650.00000000     650.00000000     650.00000000     650.00000000     650.00000000     650.00000000     650.00000000     650.00000000     650.00000000     650.00000000     650.00000000     650.00000000     650.00000000     650.00000000     650.00000000     650.00000000     650.00000000     650.00000000     650.00000000
         650.00000000     650.00000000     650.00000000     650.00000000     650.00000000     650.00000000     650.00000000     650.00000000     650.00000000     650.00000000     650.00000000     650.00000000     650.00000000     650.00000000     650.00000000     650.00000000     650.00000000     650.00000000     650.00000000     650.00000000
         650.00000000     650.00000000     650.00000000     650.00000000     650.00000000     650.00000000     650.00000000     650.00000000     650.00000000     650.00000000     650.00000000     650.00000000     650.00000000     650.00000000     650.00000000     650.00000000     650.00000000     650.00000000     650.00000000     650.00000000
         650.00000000     650.00000000     650.00000000     650.00000000     650.00000000     650.00000000     650.00000000     650.00000000     650.00000000     650.00000000     650.00000000     650.00000000     650.00000000     650.00000000     650.00000000     650.00000000     650.00000000     650.00000000     650.00000000     650.00000000
         650.00000000     650.00000000     650.00000000     650.00000000     650.00000000     650.00000000     650.00000000     650.00000000     650.00000000     650.00000000     650.00000000     650.00000000     650.00000000     650.00000000     650.00000000     650.00000000     650.00000000     650.00000000     650.00000000     650.00000000
         650.00000000     650.00000000     650.00000000     650.00000000     650.00000000     650.00000000     650.00000000     650.00000000     650.00000000     650.00000000     650.00000000     650.00000000     650.00000000     650.00000000     650.00000000     650.00000000     650.00000000     650.00000000     650.00000000     650.00000000
         650.00000000     650.00000000     650.00000000     650.00000000     650.00000000     650.00000000     650.00000000     650.00000000     650.00000000     650.00000000     650.00000000     650.00000000     650.00000000     650.00000000     650.00000000     650.00000000     650.00000000     650.00000000     650.00000000     650.00000000
         650.00000000     650.00000000     650.00000000     650.00000000     650.00000000     650.00000000     650.00000000     650.00000000     650.00000000     650.00000000     650.00000000     650.00000000     650.00000000     650.00000000     650.00000000     650.00000000     650.00000000     650.00000000     650.00000000     650.00000000
         650.00000000     650.00000000     650.00000000     650.00000000     650.00000000     650.00000000     650.00000000     650.00000000     650.00000000     650.00000000     650.00000000     650.00000000     650.00000000     650.00000000     650.00000000     650.00000000     650.00000000     650.00000000     650.00000000     650.00000000
         650.00000000     650.00000000     650.00000000     650.00000000     650.00000000     650.00000000     650.00000000     650.00000000     650.00000000     650.00000000     650.00000000     650.00000000     650.00000000     650.00000000     650.00000000     650.00000000     650.00000000     650.00000000     650.00000000     650.00000000
         650.00000000     650.00000000     650.00000000     650.00000000     650.00000000     650.00000000     650.00000000     650.00000000     650.00000000     650.00000000     650.00000000     650.00000000     650.00000000     650.00000000     650.00000000     650.00000000     650.00000000     650.00000000     650.00000000     650.00000000
         650.00000000     650.00000000     650.00000000     650.00000000     650.00000000     650.00000000     650.00000000     650.00000000     650.00000000     650.00000000     650.00000000     650.00000000     650.00000000     650.00000000     650.00000000     650.00000000     650.00000000     650.00000000     650.00000000     650.00000000
         650.00000000     650.00000000     650.00000000     650.00000000     650.00000000     650.00000000     650.00000000     650.00000000     650.00000000     650.00000000     650.00000000     650.00000000     650.00000000     650.00000000     650.00000000     650.00000000     650.00000000     650.00000000     650.00000000     650.00000000
         650.00000000     650.00000000     650.00000000     650.00000000     650.00000000     650.00000000     650.00000000     650.00000000     650.00000000     650.00000000     650.00000000     650.00000000     650.00000000     650.00000000     650.00000000     650.00000000     650.00000000     650.00000000     650.00000000     650.00000000
         650.00000000     650.00000000     650.00000000     650.00000000     650.00000000     650.00000000     650.00000000     650.00000000     650.00000000     650.00000000     650.00000000     650.00000000     650.00000000     650.00000000     650.00000000     650.00000000     650.00000000     650.00000000     650.00000000     650.00000000
         650.00000000     650.00000000     650.00000000     650.00000000     650.00000000     650.00000000     650.00000000     650.00000000     650.00000000     650.00000000     650.00000000     650.00000000     650.00000000     650.00000000     650.00000000     650.00000000     650.00000000     650.00000000     650.00000000     650.00000000
         650.00000000     650.00000000     650.00000000     650.00000000     650.00000000     650.00000000     650.00000000     650.00000000     650.00000000     650.00000000     650.00000000     650.00000000     650.00000000     650.00000000     650.00000000     650.00000000     650.00000000     650.00000000     650.00000000     650.00000000
         650.00000000     650.00000000     650.00000000     650.00000000     650.00000000     650.00000000     650.00000000     650.00000000     650.00000000     650.00000000     650.00000000     650.00000000     650.00000000     650.00000000     650.00000000     650.00000000     650.00000000     650.00000000     650.00000000     650.00000000
         650.00000000     650.00000000     650.00000000     650.00000000     650.00000000     650.00000000     650.00000000     650.00000000     650.00000000     650.00000000     650.00000000     650.00000000     650.00000000     650.00000000     650.00000000     650.00000000     650.00000000     650.00000000     650.00000000     650.00000000
         650.00000000     650.00000000     650.00000000     650.00000000     650.00000000     650.00000000     650.00000000     650.00000000     650.00000000     650.00000000     650.00000000     650.00000000     650.00000000     650.00000000     650.00000000     650.00000000     650.00000000     650.00000000     650.00000000     650.00000000
         650.00000000     650.00000000     650.00000000     650.00000000     650.00000000     650.00000000     650.00000000     650.00000000     650.00000000     650.00000000     650.00000000     650.00000000     650.00000000     650.00000000     650.00000000     650.00000000     650.00000000     650.00000000     650.00000000     650.00000000
         650.00000000     650.00000000     650.00000000     650.00000000     650.00000000     650.00000000     650.00000000     650.00000000     650.00000000     650.00000000     650.00000000     650.00000000     650.00000000     650.00000000     650.00000000     650.00000000     650.00000000     650.00000000     650.00000000     650.00000000
         650.00000000     650.00000000     650.00000000     650.00000000     650.00000000     650.00000000     650.00000000     650.00000000     650.00000000     650.00000000     650.00000000     650.00000000     650.00000000     650.00000000     650.00000000     650.00000000     650.00000000     650.00000000     650.00000000     650.00000000
         650.00000000     650.00000000     650.00000000     650.00000000     650.00000000     650.00000000     650.00000000     650.00000000     650.00000000     650.00000000     650.00000000     650.00000000     650.00000000     650.00000000     650.00000000     650.00000000     650.00000000     650.00000000     650.00000000     650.00000000
         650.00000000     650.00000000     650.00000000     650.00000000     650.00000000     650.00000000     650.00000000     650.00000000     650.00000000     650.00000000     650.00000000     650.00000000     650.00000000     650.00000000     650.00000000     650.00000000     650.00000000     650.00000000     650.00000000     650.00000000
         650.00000000     650.00000000     650.00000000     650.00000000     650.00000000     650.00000000     650.00000000     650.00000000     650.00000000     650.00000000     650.00000000     650.00000000     650.00000000     650.00000000     650.00000000     650.00000000     650.00000000     650.00000000     650.00000000     650.00000000
         650.00000000     650.00000000     650.00000000     650.00000000     650.00000000     650.00000000     650.00000000     650.00000000     650.00000000     650.00000000     650.00000000     650.00000000     650.00000000     650.00000000     650.00000000     650.00000000     650.00000000     650.00000000     650.00000000     650.00000000
         650.00000000     650.00000000     650.00000000     650.00000000     650.00000000     650.00000000     650.00000000     650.00000000     650.00000000     650.00000000     650.00000000     650.00000000     650.00000000     650.00000000     650.00000000     650.00000000     650.00000000     650.00000000     650.00000000     650.00000000
         650.00000000     650.00000000     650.00000000     650.00000000     650.00000000     650.00000000     650.00000000     650.00000000     650.00000000     650.00000000     650.00000000     650.00000000     650.00000000     650.00000000     650.00000000     650.00000000     650.00000000     650.00000000     650.00000000     650.00000000
         650.00000000     650.00000000     650.00000000     650.00000000     650.00000000     650.00000000     650.00000000     650.00000000     650.00000000     650.00000000     650.00000000     650.00000000     650.00000000     650.00000000     650.00000000     650.00000000     650.00000000     650.00000000     650.00000000     650.00000000
         650.00000000     650.00000000     650.00000000     650.00000000     650.00000000     650.00000000     650.00000000     650.00000000     650.00000000     650.00000000     650.00000000     650.00000000     650.00000000     650.00000000     650.00000000     650.00000000     650.00000000     650.00000000     650.00000000     650.00000000
         650.00000000     650.00000000     650.00000000     650.00000000     650.00000000     650.00000000     650.00000000     650.00000000     650.00000000     650.00000000     650.00000000     650.00000000     650.00000000     650.00000000     650.00000000     650.00000000     650.00000000     650.00000000     650.00000000     650.00000000
         650.00000000     650.00000000     650.00000000     650.00000000     650.00000000     650.00000000     650.00000000     650.00000000     650.00000000     650.00000000     650.00000000     650.00000000     650.00000000     650.00000000     650.00000000     650.00000000     650.00000000     650.00000000     650.00000000     650.00000000
         650.00000000     650.00000000     650.00000000     650.00000000     650.00000000     650.00000000     650.00000000     650.00000000     650.00000000     650.00000000     650.00000000     650.00000000     650.00000000     650.00000000     650.00000000     650.00000000     650.00000000     650.00000000     650.00000000     650.00000000
         650.00000000     650.00000000     650.00000000     650.00000000     650.00000000     650.00000000     650.00000000     650.00000000     650.00000000     650.00000000     650.00000000     650.00000000     650.00000000     650.00000000     650.00000000     650.00000000     650.00000000     650.00000000     650.00000000     650.00000000
         650.00000000     650.00000000     650.00000000     650.00000000     650.00000000     650.00000000     650.00000000     650.00000000     650.00000000     650.00000000     650.00000000     650.00000000     650.00000000     650.00000000     650.00000000     650.00000000     650.00000000     650.00000000     650.00000000     650.00000000
         650.00000000     650.00000000     650.00000000     650.00000000     650.00000000     650.00000000     650.00000000     650.00000000     650.00000000     650.00000000     650.00000000     650.00000000     650.00000000     650.00000000     650.00000000     650.00000000     650.00000000     650.00000000     650.00000000     650.00000000
         650.00000000     650.00000000     650.00000000     650.00000000     650.00000000     650.00000000     650.00000000     650.00000000     650.00000000     650.00000000     650.00000000     650.00000000     650.00000000     650.00000000     650.00000000     650.00000000     650.00000000     650.00000000     650.00000000     650.00000000
         650.00000000     650.00000000     650.00000000     650.00000000     650.00000000     650.00000000     650.00000000     650.00000000     650.00000000     650.00000000     650.00000000     650.00000000     650.00000000     650.00000000     650.00000000     650.00000000     650.00000000     650.00000000     650.00000000     650.00000000
         650.00000000     650.00000000     650.00000000     650.00000000     650.00000000     650.00000000     650.00000000     650.00000000     650.00000000     650.00000000     650.00000000     650.00000000     650.00000000     650.00000000     650.00000000     650.00000000     650.00000000     650.00000000     650.00000000     650.00000000
         650.00000000     650.00000000     650.00000000     650.00000000     650.00000000     650.00000000     650.00000000     650.00000000     650.00000000     650.00000000     650.00000000     650.00000000     650.00000000     650.00000000     650.00000000     650.00000000     650.00000000     650.00000000     650.00000000     650.00000000
         650.00000000     650.00000000     650.00000000     650.00000000     650.00000000     650.00000000     650.00000000     650.00000000     650.00000000     650.00000000     650.00000000     650.00000000     650.00000000     650.00000000     650.00000000     650.00000000     650.00000000     650.00000000     650.00000000     650.00000000
         650.00000000     650.00000000     650.00000000     650.00000000     650.00000000     650.00000000     650.00000000     650.00000000     650.00000000     650.00000000     650.00000000     650.00000000     650.00000000     650.00000000     650.00000000     650.00000000     650.00000000     650.00000000     650.00000000     650.00000000
         650.00000000     650.00000000     650.00000000     650.00000000     650.00000000     650.00000000     650.00000000     650.00000000     650.00000000     650.00000000     650.00000000     650.00000000     650.00000000     650.00000000     650.00000000     650.00000000     650.00000000     650.00000000     650.00000000     650.00000000
         650.00000000     650.00000000     650.00000000     650.00000000     650.00000000     650.00000000     650.00000000     650.00000000     650.00000000     650.00000000     650.00000000     650.00000000     650.00000000     650.00000000     650.00000000     650.00000000     650.00000000     650.00000000     650.00000000     650.00000000
         650.00000000     650.00000000     650.00000000     650.00000000     650.00000000     650.00000000     650.00000000     650.00000000     650.00000000     650.00000000     650.00000000     650.00000000     650.00000000     650.00000000     650.00000000     650.00000000     650.00000000     650.00000000     650.00000000     650.00000000
         650.00000000     650.00000000     650.00000000     650.00000000     650.00000000     650.00000000     650.00000000     650.00000000     650.00000000     650.00000000     650.00000000     650.00000000     650.00000000     650.00000000     650.00000000     650.00000000     650.00000000     650.00000000     650.00000000     650.00000000
         650.00000000     650.00000000     650.00000000     650.00000000     650.00000000     650.00000000     650.00000000     650.00000000     650.00000000     650.00000000     650.00000000     650.00000000     650.00000000     650.00000000     650.00000000     650.00000000     650.00000000     650.00000000     650.00000000     650.00000000
         650.00000000     650.00000000     650.00000000     650.00000000     650.00000000     650.00000000     650.00000000     650.00000000     650.00000000     650.00000000     650.00000000     650.00000000     650.00000000     650.00000000     650.00000000     650.00000000     650.00000000     650.00000000     650.00000000     650.00000000
         650.00000000     650.00000000     650.00000000     650.00000000     650.00000000     650.00000000     650.00000000     650.00000000     650.00000000     650.00000000     650.00000000     650.00000000     650.00000000     650.00000000     650.00000000     650.00000000     650.00000000     650.00000000     650.00000000     650.00000000
         650.00000000     650.00000000     650.00000000     650.00000000     650.00000000     650.00000000     650.00000000     650.00000000     650.00000000     650.00000000     650.00000000     650.00000000     650.00000000     650.00000000     650.00000000     650.00000000     650.00000000     650.00000000     650.00000000     650.00000000
         650.00000000     650.00000000     650.00000000     650.00000000     650.00000000     650.00000000     650.00000000     650.00000000     650.00000000     650.00000000     650.00000000     650.00000000     650.00000000     650.00000000     650.00000000     650.00000000     650.00000000     650.00000000     650.00000000     650.00000000
         650.00000000     650.00000000     650.00000000     650.00000000     650.00000000     650.00000000     650.00000000     650.00000000     650.00000000     650.00000000     650.00000000     650.00000000     650.00000000     650.00000000     650.00000000     650.00000000     650.00000000     650.00000000     650.00000000     650.00000000
         650.00000000     650.00000000     650.00000000     650.00000000     650.00000000     650.00000000     650.00000000     650.00000000     650.00000000     650.00000000     650.00000000     650.00000000     650.00000000     650.00000000     650.00000000     650.00000000     650.00000000     650.00000000     650.00000000     650.00000000
         650.00000000     650.00000000     650.00000000     650.00000000     650.00000000     650.00000000     650.00000000     650.00000000     650.00000000     650.00000000     650.00000000     650.00000000     650.00000000     650.00000000     650.00000000     650.00000000     650.00000000     650.00000000     650.00000000     650.00000000
         650.00000000     650.00000000     650.00000000     650.00000000     650.00000000     650.00000000     650.00000000     650.00000000     650.00000000     650.00000000     650.00000000     650.00000000     650.00000000     650.00000000     650.00000000     650.00000000     650.00000000     650.00000000     650.00000000     650.00000000
         650.00000000     650.00000000     650.00000000     650.00000000     650.00000000     650.00000000     650.00000000     650.00000000     650.00000000     650.00000000     650.00000000     650.00000000     650.00000000     650.00000000     650.00000000     650.00000000     650.00000000     650.00000000     650.00000000     650.00000000
         650.00000000     650.00000000     650.00000000     650.00000000     650.00000000     650.00000000     650.00000000     650.00000000     650.00000000     650.00000000     650.00000000     650.00000000     650.00000000     650.00000000     650.00000000     650.00000000     650.00000000     650.00000000     650.00000000     650.00000000
         650.00000000     650.00000000     650.00000000     650.00000000     650.00000000     650.00000000     650.00000000     650.00000000     650.00000000     650.00000000     650.00000000     650.00000000     650.00000000     650.00000000     650.00000000     650.00000000     650.00000000     650.00000000     650.00000000     650.00000000
         650.00000000     650.00000000     650.00000000     650.00000000     650.00000000     650.00000000     650.00000000     650.00000000     650.00000000     650.00000000     650.00000000     650.00000000     650.00000000     650.00000000     650.00000000     650.00000000     650.00000000     650.00000000     650.00000000     650.00000000
         650.00000000     650.00000000     650.00000000     650.00000000     650.00000000     650.00000000     650.00000000     650.00000000     650.00000000     650.00000000     650.00000000     650.00000000     650.00000000     650.00000000     650.00000000     650.00000000     650.00000000     650.00000000     650.00000000     650.00000000
         650.00000000     650.00000000     650.00000000     650.00000000     650.00000000     650.00000000     650.00000000     650.00000000     650.00000000     650.00000000     650.00000000     650.00000000     650.00000000     650.00000000     650.00000000     650.00000000     650.00000000     650.00000000     650.00000000     650.00000000
         650.00000000     650.00000000     650.00000000     650.00000000     650.00000000     650.00000000     650.00000000     650.00000000     650.00000000     650.00000000     650.00000000     650.00000000     650.00000000     650.00000000     650.00000000     650.00000000     650.00000000     650.00000000     650.00000000     650.00000000
         650.00000000     650.00000000     650.00000000     650.00000000     650.00000000     650.00000000     650.00000000     650.00000000     650.00000000     650.00000000     650.00000000     650.00000000     650.00000000     650.00000000     650.00000000     650.00000000     650.00000000     650.00000000     650.00000000     650.00000000
         650.00000000     650.00000000     650.00000000     650.00000000     650.00000000     650.00000000     650.00000000     650.00000000     650.00000000     650.00000000     650.00000000     650.00000000     650.00000000     650.00000000     650.00000000     650.00000000     650.00000000     650.00000000     650.00000000     650.00000000
         650.00000000     650.00000000     650.00000000     650.00000000     650.00000000     650.00000000     650.00000000     650.00000000     650.00000000     650.00000000     650.00000000     650.00000000     650.00000000     650.00000000     650.00000000     650.00000000     650.00000000     650.00000000     650.00000000     650.00000000
         650.00000000     650.00000000     650.00000000     650.00000000     650.00000000     650.00000000     650.00000000     650.00000000     650.00000000     650.00000000     650.00000000     650.00000000     650.00000000     650.00000000     650.00000000     650.00000000     650.00000000     650.00000000     650.00000000     650.00000000
         650.00000000     650.00000000     650.00000000     650.00000000     650.00000000     650.00000000     650.00000000     650.00000000     650.00000000     650.00000000     650.00000000     650.00000000     650.00000000     650.00000000     650.00000000     650.00000000     650.00000000     650.00000000     650.00000000     650.00000000
         650.00000000     650.00000000     650.00000000     650.00000000     650.00000000     650.00000000     650.00000000     650.00000000     650.00000000     650.00000000     650.00000000     650.00000000     650.00000000     650.00000000     650.00000000     650.00000000     650.00000000     650.00000000     650.00000000     650.00000000