# File generated by Flopy version 3.3.4 on 08/27/2022 at 17:07:14.
BEGIN options
  SAVE_FLOWS
END options

BEGIN griddata
  iconvert
    CONSTANT  0
  ss
    CONSTANT  1.00000000E-05
  sy
    CONSTANT       0.15000000
END griddata

BEGIN period  1
  STEADY-STATE
END period  1

